# created with PyMOL 2.5.0
@<TRIPOS>MOLECULE
bnz
13 13 1                 
SMALL
USER_CHARGES
@<TRIPOS>ATOM
1	 H01	24.813	4.801	6.279	 H	1	PHN   	0.000	
2	 O01	24.996	4.486	5.391	O.3	1	PHN   	0.000	
3	 H02	25.968	4.235	2.950	 H	1	PHN   	0.000	
4	 H03	27.689	5.631	1.895	 H	1	PHN   	0.000	
5	 H04	28.573	7.566	3.089	 H	1	PHN   	0.000	
6	 H05	27.821	8.060	5.386	 H	1	PHN   	0.000	
7	 H06	26.187	6.572	6.496	 H	1	PHN   	0.000	
8	  C1	25.978	5.327	4.779	C.2	1	PHN   	0.000	
9	  C2	26.395	5.074	3.499	C.2	1	PHN   	0.000	
10	  C3	27.340	5.860	2.902	C.2	1	PHN   	0.000	
11	  C4	27.837	6.921	3.569	C.2	1	PHN   	0.000	
12	  C5	27.420	7.196	4.856	C.2	1	PHN   	0.000	
13	  C6	26.498	6.379	5.469	C.2	1	PHN   	0.000	
@<TRIPOS>BOND
1 1 2 1
2 2 8 1
3 3 9 1
4 4 10 1
5 5 11 1
6 6 12 1
7 7 13 1
8 8 9 ar
9 8 13 ar
10 9 10 ar
11 10 11 ar
12 11 12 ar
13 12 13 ar
@<TRIPOS>SUBSTRUCTURE
1	PHN   	1	GROUP	1 A	PHN
