@<TRIPOS>MOLECULE
bnz
   13    13     1     0     0
SMALL
bcc


@<TRIPOS>ATOM
      1 H01         24.8130     4.8010     6.2790 ho         1 PHN       0.418000
      2 O01         24.9960     4.4860     5.3910 oh         1 PHN      -0.499100
      3 H02         25.9680     4.2350     2.9500 ha         1 PHN       0.141500
      4 H03         27.6890     5.6310     1.8950 ha         1 PHN       0.133000
      5 H04         28.5730     7.5660     3.0890 ha         1 PHN       0.133000
      6 H05         27.8210     8.0600     5.3860 ha         1 PHN       0.133000
      7 H06         26.1870     6.5720     6.4960 ha         1 PHN       0.141500
      8 C1          25.9780     5.3270     4.7790 ca         1 PHN       0.123100
      9 C2          26.3950     5.0740     3.4990 ca         1 PHN      -0.185000
     10 C3          27.3400     5.8600     2.9020 ca         1 PHN      -0.094500
     11 C4          27.8370     6.9210     3.5690 ca         1 PHN      -0.166000
     12 C5          27.4200     7.1960     4.8560 ca         1 PHN      -0.094500
     13 C6          26.4980     6.3790     5.4690 ca         1 PHN      -0.185000
@<TRIPOS>BOND
     1     1     2 1   
     2     2     8 1   
     3     3     9 1   
     4     4    10 1   
     5     5    11 1   
     6     6    12 1   
     7     7    13 1   
     8     8     9 ar  
     9     8    13 ar  
    10     9    10 ar  
    11    10    11 ar  
    12    11    12 ar  
    13    12    13 ar  
@<TRIPOS>SUBSTRUCTURE
     1 PHN         1 TEMP              0 ****  ****    0 ROOT
