# created with PyMOL 2.4.0
@<TRIPOS>MOLECULE
CHEMBL93060
34 35 1                 
SMALL
USER_CHARGES
@<TRIPOS>ATOM
1	  C1	-1.031	1.370	-0.782	C.3	1	<0>1	-0.127	
2	  N1	-0.655	-2.943	-2.095	N.pl3	1	<0>1	-0.595	
3	  O1	1.044	-3.293	-0.712	O.2	1	<0>1	-0.487	
4	  S1	-3.040	-2.706	-3.053	S.3	1	<0>1	-0.199	
5	  C2	0.297	2.136	-0.561	C.3	1	<0>1	-0.124	
6	  N2	0.248	-6.184	-2.097	N.1	1	<0>1	-0.370	
7	  C3	1.352	1.166	-1.149	C.3	1	<0>1	-0.139	
8	  N3	2.570	-1.400	-2.034	N.4	1	<0>1	-0.623	
9	  C4	0.847	-0.234	-0.743	C.3	1	<0>1	-0.110	
10	  C5	-0.669	-0.104	-0.509	C.3	1	<0>1	-0.128	
11	  C6	1.120	-1.236	-1.866	C.3	1	<0>1	0.016	
12	  C7	0.501	-2.565	-1.516	C.2	1	<0>1	0.513	
13	  C8	-1.284	-2.146	-3.171	C.3	1	<0>1	0.114	
14	  C9	-2.673	-4.416	-2.455	C.3	1	<0>1	-0.068	
15	 C10	-1.347	-4.159	-1.699	C.3	1	<0>1	0.238	
16	 C11	-0.447	-5.302	-1.923	C.1	1	<0>1	0.175	
17	  H1	-1.565	-4.101	-0.633	 H	1	<0>1	0.143	
18	  H2	-1.790	1.713	-0.079	 H	1	<0>1	0.082	
19	  H3	-1.377	1.495	-1.808	 H	1	<0>1	0.073	
20	  H4	0.294	3.080	-1.106	 H	1	<0>1	0.082	
21	  H5	0.475	2.302	0.501	 H	1	<0>1	0.079	
22	  H6	1.391	1.257	-2.234	 H	1	<0>1	0.078	
23	  H7	2.332	1.359	-0.713	 H	1	<0>1	0.084	
24	  H8	1.339	-0.557	0.174	 H	1	<0>1	0.112	
25	  H9	-0.911	-0.364	0.521	 H	1	<0>1	0.089	
26	 H10	-1.209	-0.755	-1.196	 H	1	<0>1	0.075	
27	 H11	0.686	-0.867	-2.796	 H	1	<0>1	0.163	
28	 H12	-1.198	-1.079	-2.969	 H	1	<0>1	0.132	
29	 H13	-0.858	-2.395	-4.143	 H	1	<0>1	0.117	
30	 H14	-3.452	-4.777	-1.783	 H	1	<0>1	0.153	
31	 H15	-2.523	-5.103	-3.289	 H	1	<0>1	0.120	
32	 H16	2.984	-0.511	-2.269	 H	1	<0>1	0.446	
33	 H17	2.972	-1.742	-1.174	 H	1	<0>1	0.445	
34	 H18	2.750	-2.061	-2.775	 H	1	<0>1	0.440	
@<TRIPOS>BOND
1 1 5 1
2 1 10 1
3 1 18 1
4 1 19 1
5 2 13 1
6 2 15 1
7 4 14 1
8 5 7 1
9 5 20 1
10 5 21 1
11 7 9 1
12 7 22 1
13 7 23 1
14 8 32 1
15 8 33 1
16 8 34 1
17 9 10 1
18 9 11 1
19 9 24 1
20 10 25 1
21 10 26 1
22 8 11 1
23 11 12 1
24 11 27 1
25 2 12 1
26 3 12 2
27 4 13 1
28 13 28 1
29 13 29 1
30 14 15 1
31 14 30 1
32 14 31 1
33 15 16 1
34 15 17 1
35 6 16 3
@<TRIPOS>SUBSTRUCTURE
1	<0>1	1	GROUP	1 ****	<0>
@<TRIPOS>MOLECULE
CHEMBL261460
43 44 1                 
SMALL
USER_CHARGES
@<TRIPOS>ATOM
1	  C1	0.175	1.476	0.099	C.3	1	<0>1	-0.198	
2	  N1	1.020	-0.631	1.056	N.4	1	<0>1	-0.503	
3	  O1	3.451	-1.452	1.834	O.2	1	<0>1	-0.507	
4	  C2	0.122	-0.052	0.034	C.3	1	<0>1	0.044	
5	  N2	3.415	-3.466	0.902	N.pl3	1	<0>1	-0.558	
6	  O2	2.195	1.033	-2.143	O.2	1	<0>1	-0.519	
7	  C3	0.624	-0.535	-1.340	C.3	1	<0>1	-0.133	
8	  N3	4.169	-4.929	3.866	N.1	1	<0>1	-0.384	
9	  C4	1.836	-1.443	-1.030	C.3	1	<0>1	-0.120	
10	  N4	0.154	1.250	-2.987	N.pl3	1	<0>1	-0.610	
11	  C5	1.590	-1.861	0.441	C.3	1	<0>1	0.012	
12	  C6	2.885	-2.244	1.109	C.2	1	<0>1	0.519	
13	  C7	4.674	-3.838	1.552	C.3	1	<0>1	0.208	
14	  C8	4.389	-4.454	2.858	C.1	1	<0>1	0.171	
15	  C9	2.731	-4.421	0.027	C.3	1	<0>1	0.030	
16	 C10	3.269	-5.853	-0.011	C.3	1	<0>1	-0.171	
17	 C11	3.491	-4.921	-1.203	C.3	1	<0>1	-0.176	
18	 C12	1.048	0.638	-2.185	C.2	1	<0>1	0.518	
19	 C13	0.591	2.315	-3.892	C.3	1	<0>1	0.076	
20	 C14	-1.254	0.849	-2.953	C.3	1	<0>1	0.061	
21	  H1	-0.899	-0.395	0.198	 H	1	<0>1	0.158	
22	  H2	-0.155	-1.104	-1.848	 H	1	<0>1	0.141	
23	  H3	0.874	-2.681	0.493	 H	1	<0>1	0.171	
24	  H4	1.205	1.810	-0.026	 H	1	<0>1	0.093	
25	  H5	-0.442	1.895	-0.695	 H	1	<0>1	0.110	
26	  H6	-0.200	1.811	1.066	 H	1	<0>1	0.094	
27	  H7	1.841	-2.316	-1.683	 H	1	<0>1	0.134	
28	  H8	2.769	-0.886	-1.122	 H	1	<0>1	0.127	
29	  H9	1.758	0.019	1.280	 H	1	<0>1	0.440	
30	 H10	5.210	-4.549	0.924	 H	1	<0>1	0.138	
31	 H11	5.286	-2.947	1.696	 H	1	<0>1	0.141	
32	 H12	1.654	-4.285	-0.068	 H	1	<0>1	0.139	
33	 H13	4.130	-6.084	0.615	 H	1	<0>1	0.108	
34	 H14	2.545	-6.659	-0.131	 H	1	<0>1	0.118	
35	 H15	2.914	-5.114	-2.108	 H	1	<0>1	0.116	
36	 H16	4.500	-4.539	-1.362	 H	1	<0>1	0.110	
37	 H17	0.881	1.882	-4.850	 H	1	<0>1	0.066	
38	 H18	-0.225	3.021	-4.044	 H	1	<0>1	0.080	
39	 H19	1.444	2.836	-3.456	 H	1	<0>1	0.084	
40	 H20	-1.374	-0.002	-2.282	 H	1	<0>1	0.076	
41	 H21	-1.860	1.682	-2.596	 H	1	<0>1	0.075	
42	 H22	-1.577	0.569	-3.956	 H	1	<0>1	0.079	
43	 H23	0.496	-0.865	1.887	 H	1	<0>1	0.438	
@<TRIPOS>BOND
1 1 4 1
2 1 24 1
3 1 25 1
4 1 26 1
5 2 29 1
6 2 43 1
7 2 4 1
8 4 7 1
9 4 21 1
10 5 13 1
11 5 15 1
12 7 9 1
13 7 18 1
14 7 22 1
15 9 11 1
16 9 27 1
17 9 28 1
18 10 19 1
19 10 20 1
20 2 11 1
21 11 12 1
22 11 23 1
23 3 12 2
24 5 12 1
25 13 14 1
26 13 30 1
27 13 31 1
28 8 14 3
29 15 16 1
30 15 17 1
31 15 32 1
32 16 17 1
33 16 33 1
34 16 34 1
35 17 35 1
36 17 36 1
37 6 18 2
38 10 18 1
39 19 37 1
40 19 38 1
41 19 39 1
42 20 40 1
43 20 41 1
44 20 42 1
@<TRIPOS>SUBSTRUCTURE
1	<0>1	1	GROUP	1 ****	<0>
@<TRIPOS>MOLECULE
CHEMBL255492
64 68 1                 
SMALL
USER_CHARGES
@<TRIPOS>ATOM
1	  C1	-0.512	1.931	0.489	C.3	1	<0>1	-0.074	
2	  N1	-1.234	-2.808	0.104	N.pl3	1	<0>1	-0.360	
3	  O1	-0.765	-2.924	3.048	O.2	1	<0>1	-0.472	
4	  C2	-0.306	0.477	0.381	C.1	1	<0>1	-0.035	
5	  N2	-2.702	-3.975	3.332	N.pl3	1	<0>1	-0.527	
6	  C3	-0.141	-0.682	0.295	C.1	1	<0>1	-0.305	
7	  N3	-1.425	-6.156	4.175	N.pl3	1	<0>1	-0.448	
8	  C4	0.065	-2.135	0.187	C.3	1	<0>1	0.234	
9	  N4	-3.067	-3.670	-0.722	N.pl3	1	<0>1	-0.477	
10	  C5	-1.965	-3.322	1.162	C.2	1	<0>1	-0.035	
11	  N5	-1.572	-2.678	-2.300	N.pl3	1	<0>1	-0.627	
12	  C6	-3.128	-3.865	0.604	C.2	1	<0>1	0.169	
13	  N6	-0.456	-4.580	-5.309	N.4	1	<0>1	-0.634	
14	  C7	-4.102	-4.486	1.499	C.2	1	<0>1	-0.172	
15	  C8	-3.846	-4.514	2.821	C.2	1	<0>1	0.150	
16	  C9	-1.776	-3.393	2.548	C.2	1	<0>1	0.558	
17	 C10	-2.474	-4.033	4.778	C.3	1	<0>1	0.115	
18	 C11	-1.769	-5.319	5.125	C.2	1	<0>1	0.203	
19	 C12	-1.484	-5.626	6.465	C.2	1	<0>1	-0.083	
20	 C13	-1.837	-4.767	7.518	C.2	1	<0>1	-0.087	
21	 C14	-1.536	-5.117	8.799	C.2	1	<0>1	-0.069	
22	 C15	-0.882	-6.314	9.083	C.2	1	<0>1	-0.035	
23	 C16	-0.524	-7.172	8.087	C.2	1	<0>1	-0.107	
24	 C17	-0.819	-6.845	6.756	C.2	1	<0>1	0.017	
25	 C18	-0.477	-7.688	5.683	C.2	1	<0>1	-0.063	
26	 C19	-0.798	-7.299	4.418	C.2	1	<0>1	0.085	
27	 C20	-0.435	-8.196	3.262	C.3	1	<0>1	-0.132	
28	 C21	-1.953	-3.042	-1.028	C.cat	1	<0>1	0.584	
29	 C22	-2.028	-1.410	-2.885	C.3	1	<0>1	0.119	
30	 C23	-2.685	-1.700	-4.239	C.3	1	<0>1	-0.133	
31	 C24	-1.706	-2.482	-5.119	C.3	1	<0>1	-0.150	
32	 C25	-1.370	-3.816	-4.449	C.3	1	<0>1	0.011	
33	 C26	-0.695	-3.548	-3.096	C.3	1	<0>1	0.108	
34	  H1	0.454	2.431	0.551	 H	1	<0>1	0.107	
35	  H2	-1.050	2.287	-0.389	 H	1	<0>1	0.099	
36	  H3	-1.093	2.150	1.385	 H	1	<0>1	0.100	
37	  H4	0.646	-2.355	-0.709	 H	1	<0>1	0.135	
38	  H5	0.603	-2.492	1.066	 H	1	<0>1	0.148	
39	  H6	-5.012	-4.916	1.107	 H	1	<0>1	0.192	
40	  H7	-4.561	-4.970	3.490	 H	1	<0>1	0.207	
41	  H8	-1.858	-3.187	5.083	 H	1	<0>1	0.170	
42	  H9	-3.431	-3.991	5.299	 H	1	<0>1	0.171	
43	 H10	-2.344	-3.835	7.313	 H	1	<0>1	0.155	
44	 H11	-1.808	-4.455	9.608	 H	1	<0>1	0.161	
45	 H12	-0.656	-6.566	10.109	 H	1	<0>1	0.161	
46	 H13	-0.018	-8.097	8.321	 H	1	<0>1	0.163	
47	 H14	0.030	-8.626	5.859	 H	1	<0>1	0.190	
48	 H15	-1.255	-8.887	3.068	 H	1	<0>1	0.110	
49	 H16	-0.253	-7.589	2.375	 H	1	<0>1	0.080	
50	 H17	0.465	-8.760	3.508	 H	1	<0>1	0.119	
51	 H18	-2.754	-0.941	-2.220	 H	1	<0>1	0.099	
52	 H19	-1.176	-0.745	-3.027	 H	1	<0>1	0.101	
53	 H20	-3.588	-2.290	-4.086	 H	1	<0>1	0.084	
54	 H21	-2.942	-0.760	-4.727	 H	1	<0>1	0.119	
55	 H22	-2.162	-2.668	-6.091	 H	1	<0>1	0.108	
56	 H23	-0.793	-1.902	-5.250	 H	1	<0>1	0.101	
57	 H24	-2.286	-4.387	-4.294	 H	1	<0>1	0.149	
58	 H25	0.264	-3.054	-3.254	 H	1	<0>1	0.112	
59	 H26	-0.540	-4.490	-2.570	 H	1	<0>1	0.108	
60	 H27	0.392	-4.052	-5.450	 H	1	<0>1	0.441	
61	 H28	-0.235	-5.459	-4.867	 H	1	<0>1	0.440	
62	 H29	-3.744	-3.948	-1.359	 H	1	<0>1	0.466	
63	 H30	-0.897	-4.752	-6.200	 H	1	<0>1	0.450	
64	 H31	-1.634	-5.928	3.256	 H	1	<0>1	0.425	
@<TRIPOS>BOND
1 1 4 1
2 1 34 1
3 1 35 1
4 1 36 1
5 2 10 1
6 2 28 1
7 4 6 3
8 5 16 1
9 5 17 1
10 6 8 1
11 7 64 1
12 2 8 1
13 8 37 1
14 8 38 1
15 9 28 2
16 9 62 1
17 10 12 2
18 10 16 1
19 11 29 1
20 11 33 1
21 9 12 1
22 12 14 1
23 13 60 1
24 13 61 1
25 13 63 1
26 14 15 2
27 14 39 1
28 5 15 1
29 15 40 1
30 3 16 2
31 17 18 1
32 17 41 1
33 17 42 1
34 7 18 ar
35 18 19 ar
36 19 20 ar
37 19 24 ar
38 20 21 ar
39 20 43 1
40 21 22 ar
41 21 44 1
42 22 23 ar
43 22 45 1
44 23 24 ar
45 23 46 1
46 24 25 ar
47 25 26 ar
48 25 47 1
49 7 26 ar
50 26 27 1
51 27 48 1
52 27 49 1
53 27 50 1
54 11 28 1
55 29 30 1
56 29 51 1
57 29 52 1
58 30 31 1
59 30 53 1
60 30 54 1
61 31 32 1
62 31 55 1
63 31 56 1
64 13 32 1
65 32 33 1
66 32 57 1
67 33 58 1
68 33 59 1
@<TRIPOS>SUBSTRUCTURE
1	<0>1	1	GROUP	1 ****	<0>
@<TRIPOS>MOLECULE
CHEMBL189461
37 39 1                 
SMALL
USER_CHARGES
@<TRIPOS>ATOM
1	  C1	-0.451	1.443	0.405	C.3	1	<0>1	-0.170	
2	  N1	0.250	-1.518	2.125	N.4	1	<0>1	-0.507	
3	  O1	0.969	0.924	3.023	O.2	1	<0>1	-0.511	
4	  C2	-0.245	-0.065	0.244	C.3	1	<0>1	-0.059	
5	  N2	2.486	1.298	1.447	N.pl3	1	<0>1	-0.574	
6	  C3	-1.514	-0.830	0.686	C.3	1	<0>1	-0.141	
7	  N3	1.476	3.729	3.636	N.1	1	<0>1	-0.370	
8	  C4	-0.936	-2.066	1.419	C.3	1	<0>1	-0.001	
9	  C5	0.868	-0.556	1.188	C.3	1	<0>1	0.015	
10	  C6	1.444	0.608	1.953	C.2	1	<0>1	0.533	
11	  C7	3.121	2.505	2.025	C.3	1	<0>1	0.244	
12	  C8	3.423	3.377	0.780	C.3	1	<0>1	-0.105	
13	  C9	3.840	2.332	-0.279	C.3	1	<0>1	-0.133	
14	 C10	3.231	1.001	0.209	C.3	1	<0>1	0.010	
15	 C11	2.744	1.683	-1.125	C.3	1	<0>1	-0.151	
16	 C12	2.192	3.196	2.934	C.1	1	<0>1	0.181	
17	 C13	0.102	-0.400	-1.207	C.3	1	<0>1	-0.155	
18	  H1	1.652	-1.049	0.612	 H	1	<0>1	0.164	
19	  H2	4.043	2.243	2.544	 H	1	<0>1	0.139	
20	  H3	4.857	2.385	-0.668	 H	1	<0>1	0.142	
21	  H4	3.798	0.071	0.176	 H	1	<0>1	0.153	
22	  H5	0.440	1.970	0.063	 H	1	<0>1	0.075	
23	  H6	-1.310	1.758	-0.187	 H	1	<0>1	0.086	
24	  H7	-0.629	1.675	1.455	 H	1	<0>1	0.071	
25	  H8	-2.113	-0.223	1.365	 H	1	<0>1	0.104	
26	  H9	-2.102	-1.135	-0.181	 H	1	<0>1	0.125	
27	 H10	-1.659	-2.463	2.132	 H	1	<0>1	0.145	
28	 H11	-0.638	-2.833	0.704	 H	1	<0>1	0.141	
29	 H12	-0.035	-1.047	2.970	 H	1	<0>1	0.438	
30	 H13	2.531	3.916	0.461	 H	1	<0>1	0.091	
31	 H14	4.241	4.069	0.983	 H	1	<0>1	0.115	
32	 H15	1.766	2.165	-1.137	 H	1	<0>1	0.108	
33	 H16	3.044	1.208	-2.059	 H	1	<0>1	0.125	
34	 H17	1.067	0.039	-1.461	 H	1	<0>1	0.079	
35	 H18	0.152	-1.483	-1.328	 H	1	<0>1	0.070	
36	 H19	-0.666	0.003	-1.867	 H	1	<0>1	0.085	
37	 H20	0.899	-2.260	2.341	 H	1	<0>1	0.435	
@<TRIPOS>BOND
1 1 4 1
2 1 22 1
3 1 23 1
4 1 24 1
5 2 9 1
6 2 29 1
7 2 37 1
8 4 6 1
9 4 9 1
10 4 17 1
11 5 11 1
12 5 14 1
13 6 8 1
14 6 25 1
15 6 26 1
16 2 8 1
17 8 27 1
18 8 28 1
19 9 10 1
20 9 18 1
21 3 10 2
22 5 10 1
23 11 12 1
24 11 16 1
25 11 19 1
26 12 13 1
27 12 30 1
28 12 31 1
29 13 14 1
30 13 15 1
31 13 20 1
32 14 15 1
33 14 21 1
34 15 32 1
35 15 33 1
36 7 16 3
37 17 34 1
38 17 35 1
39 17 36 1
@<TRIPOS>SUBSTRUCTURE
1	<0>1	1	GROUP	1 ****	<0>
@<TRIPOS>MOLECULE
CHEMBL245585
47 50 1                 
SMALL
USER_CHARGES
@<TRIPOS>ATOM
1	  C1	-0.734	1.916	0.430	C.2	1	<0>1	-0.146	
2	  N1	5.426	3.469	-0.227	N.2	1	<0>1	-0.584	
3	  O1	1.128	-2.431	0.030	O.co2	1	<0>1	-0.679	
4	  C2	0.510	2.505	0.309	C.2	1	<0>1	-0.097	
5	  N2	4.062	1.613	-0.243	N.2	1	<0>1	-0.535	
6	  O2	-0.967	-2.246	0.282	O.co2	1	<0>1	-0.682	
7	  C3	1.648	1.715	0.144	C.2	1	<0>1	-0.106	
8	  N3	4.598	5.640	0.177	N.pl3	1	<0>1	-0.621	
9	  C4	1.530	0.330	0.100	C.2	1	<0>1	-0.025	
10	  N4	4.043	8.731	-0.636	N.4	1	<0>1	-0.638	
11	  C5	0.272	-0.261	0.221	C.2	1	<0>1	-0.139	
12	  C6	-0.860	0.542	0.387	C.2	1	<0>1	-0.056	
13	  C7	0.137	-1.730	0.175	C.2	1	<0>1	0.517	
14	  C8	2.981	2.351	0.015	C.2	1	<0>1	0.279	
15	  C9	3.126	3.728	0.166	C.2	1	<0>1	-0.286	
16	 C10	4.401	4.276	0.036	C.2	1	<0>1	0.447	
17	 C11	5.248	2.170	-0.363	C.2	1	<0>1	0.351	
18	 C12	5.870	6.352	-0.045	C.3	1	<0>1	0.113	
19	 C13	5.755	7.644	0.801	C.3	1	<0>1	-0.069	
20	 C14	4.255	8.001	0.621	C.3	1	<0>1	0.021	
21	 C15	3.572	6.618	0.567	C.3	1	<0>1	0.103	
22	 C16	6.639	8.732	0.250	C.2	1	<0>1	-0.126	
23	 C17	6.581	9.056	-1.093	C.2	1	<0>1	-0.150	
24	 C18	7.393	10.054	-1.600	C.2	1	<0>1	0.084	
25	 C19	8.266	10.731	-0.761	C.2	1	<0>1	0.123	
26	 C20	8.323	10.407	0.582	C.2	1	<0>1	-0.143	
27	 C21	7.506	9.411	1.089	C.2	1	<0>1	0.155	
28	  F1	7.558	9.098	2.402	 F	1	<0>1	-0.107	
29	  F2	9.059	11.706	-1.256	 F	1	<0>1	-0.102	
30	  F3	7.336	10.370	-2.913	 F	1	<0>1	-0.108	
31	  H1	-1.610	2.533	0.562	 H	1	<0>1	0.122	
32	  H2	0.602	3.581	0.343	 H	1	<0>1	0.112	
33	  H3	2.408	-0.286	-0.029	 H	1	<0>1	0.144	
34	  H4	-1.835	0.087	0.481	 H	1	<0>1	0.133	
35	  H5	2.273	4.355	0.379	 H	1	<0>1	0.140	
36	  H6	6.102	1.544	-0.577	 H	1	<0>1	0.202	
37	  H7	6.709	5.747	0.299	 H	1	<0>1	0.112	
38	  H8	5.988	6.599	-1.100	 H	1	<0>1	0.073	
39	  H9	5.986	7.447	1.848	 H	1	<0>1	0.149	
40	 H10	3.892	8.580	1.470	 H	1	<0>1	0.175	
41	 H11	2.770	6.628	-0.171	 H	1	<0>1	0.094	
42	 H12	3.173	6.365	1.549	 H	1	<0>1	0.116	
43	 H13	4.347	8.160	-1.411	 H	1	<0>1	0.432	
44	 H14	3.062	8.943	-0.740	 H	1	<0>1	0.440	
45	 H15	5.902	8.528	-1.746	 H	1	<0>1	0.149	
46	 H16	9.003	10.933	1.237	 H	1	<0>1	0.175	
47	 H17	4.573	9.589	-0.622	 H	1	<0>1	0.436	
@<TRIPOS>BOND
1 1 4 ar
2 1 12 ar
3 1 31 1
4 2 17 ar
5 4 7 ar
6 4 32 1
7 7 9 ar
8 7 14 1
9 8 18 1
10 8 21 1
11 9 11 ar
12 9 33 1
13 10 43 1
14 10 44 1
15 10 47 1
16 11 12 ar
17 11 13 1
18 12 34 1
19 3 13 2
20 6 13 1
21 5 14 ar
22 14 15 ar
23 15 16 ar
24 15 35 1
25 2 16 ar
26 8 16 1
27 5 17 ar
28 17 36 1
29 18 19 1
30 18 37 1
31 18 38 1
32 19 20 1
33 19 22 1
34 19 39 1
35 10 20 1
36 20 21 1
37 20 40 1
38 21 41 1
39 21 42 1
40 22 23 ar
41 22 27 ar
42 23 24 ar
43 23 45 1
44 24 25 ar
45 24 30 1
46 25 26 ar
47 25 29 1
48 26 27 ar
49 26 46 1
50 27 28 1
@<TRIPOS>SUBSTRUCTURE
1	<0>1	1	GROUP	1 ****	<0>
@<TRIPOS>MOLECULE
CHEMBL564854
31 32 1                 
SMALL
USER_CHARGES
@<TRIPOS>ATOM
1	  C1	-0.019	1.526	0.010	C.3	1	<0>1	-0.184	
2	  N1	-0.180	-1.124	3.327	N.pl3	1	<0>1	-0.609	
3	  O1	-0.300	1.076	2.737	O.2	1	<0>1	-0.445	
4	  S1	-0.495	-3.688	3.213	S.3	1	<0>1	-0.199	
5	  C2	0.002	-0.004	0.002	C.3	1	<0>1	-0.094	
6	  N2	-0.024	-0.267	6.586	N.1	1	<0>1	-0.364	
7	  C3	0.718	-0.498	-1.257	C.3	1	<0>1	-0.169	
8	  N3	2.132	-0.035	1.239	N.4	1	<0>1	-0.623	
9	  C4	0.742	-0.511	1.242	C.3	1	<0>1	0.042	
10	  C5	0.697	-2.058	1.305	C.3	1	<0>1	-0.121	
11	  C6	0.616	-2.272	2.823	C.3	1	<0>1	0.109	
12	  C7	0.033	-0.066	2.499	C.2	1	<0>1	0.532	
13	  C8	-1.025	-1.444	4.485	C.3	1	<0>1	0.261	
14	  C9	-1.158	-2.955	4.793	C.3	1	<0>1	-0.062	
15	 C10	-0.460	-0.780	5.671	C.1	1	<0>1	0.167	
16	  H1	1.595	-2.357	3.293	 H	1	<0>1	0.136	
17	  H2	-2.021	-1.040	4.307	 H	1	<0>1	0.148	
18	  H3	1.004	1.903	0.003	 H	1	<0>1	0.053	
19	  H4	-0.546	1.887	-0.873	 H	1	<0>1	0.090	
20	  H5	-0.529	1.877	0.907	 H	1	<0>1	0.095	
21	  H6	-1.020	-0.381	0.010	 H	1	<0>1	0.126	
22	  H7	1.741	-0.120	-1.265	 H	1	<0>1	0.056	
23	  H8	0.733	-1.587	-1.263	 H	1	<0>1	0.079	
24	  H9	0.191	-0.136	-2.140	 H	1	<0>1	0.095	
25	 H10	-0.189	-2.448	0.803	 H	1	<0>1	0.148	
26	 H11	1.606	-2.497	0.892	 H	1	<0>1	0.131	
27	 H12	-0.535	-3.241	5.640	 H	1	<0>1	0.124	
28	 H13	-2.199	-3.234	4.958	 H	1	<0>1	0.154	
29	 H14	2.141	0.974	1.241	 H	1	<0>1	0.444	
30	 H15	2.606	-0.377	2.062	 H	1	<0>1	0.437	
31	 H16	2.602	-0.374	0.414	 H	1	<0>1	0.444	
@<TRIPOS>BOND
1 1 5 1
2 1 18 1
3 1 19 1
4 1 20 1
5 2 12 1
6 2 13 1
7 5 7 1
8 5 9 1
9 5 21 1
10 7 22 1
11 7 23 1
12 7 24 1
13 8 29 1
14 8 30 1
15 8 31 1
16 8 9 1
17 9 10 1
18 9 12 1
19 10 11 1
20 10 25 1
21 10 26 1
22 2 11 1
23 4 11 1
24 11 16 1
25 3 12 2
26 13 14 1
27 13 15 1
28 13 17 1
29 4 14 1
30 14 27 1
31 14 28 1
32 6 15 3
@<TRIPOS>SUBSTRUCTURE
1	<0>1	1	GROUP	1 ****	<0>
@<TRIPOS>MOLECULE
CHEMBL1209541
43 46 1                 
SMALL
USER_CHARGES
@<TRIPOS>ATOM
1	  C1	-0.018	1.503	0.010	C.3	1	<0>1	-0.121	
2	  N1	0.052	-2.726	-0.014	N.pl3	1	<0>1	-0.311	
3	  C2	0.002	-0.004	0.002	C.2	1	<0>1	0.213	
4	  N2	1.151	-0.641	-0.012	N.2	1	<0>1	-0.438	
5	  C3	-1.201	-0.715	0.004	C.2	1	<0>1	-0.274	
6	  N3	0.415	-4.077	-0.023	N.2	1	<0>1	-0.252	
7	  C4	-1.168	-2.094	-0.004	C.2	1	<0>1	0.311	
8	  N4	-2.881	0.351	1.399	N.4	1	<0>1	-0.639	
9	  C5	1.204	-1.980	-0.015	C.2	1	<0>1	0.256	
10	  C6	2.266	-2.872	-0.026	C.2	1	<0>1	-0.216	
11	  C7	1.733	-4.163	-0.031	C.2	1	<0>1	0.172	
12	  C8	2.518	-5.423	-0.042	C.2	1	<0>1	-0.036	
13	  C9	3.911	-5.379	-0.042	C.2	1	<0>1	-0.072	
14	 C10	4.636	-6.553	-0.052	C.2	1	<0>1	-0.115	
15	 C11	3.983	-7.773	-0.062	C.2	1	<0>1	-0.081	
16	 C12	2.601	-7.824	-0.061	C.2	1	<0>1	-0.114	
17	 C13	1.865	-6.655	-0.045	C.2	1	<0>1	-0.007	
18	 C14	-2.420	-2.877	-0.002	C.2	1	<0>1	-0.101	
19	 C15	-3.184	-2.981	-1.167	C.2	1	<0>1	-0.058	
20	 C16	-4.352	-3.713	-1.158	C.2	1	<0>1	-0.098	
21	 C17	-4.770	-4.345	0.002	C.2	1	<0>1	0.003	
22	 C18	-4.018	-4.246	1.160	C.2	1	<0>1	-0.098	
23	 C19	-2.843	-3.520	1.164	C.2	1	<0>1	0.000	
24	 C20	-2.519	0.017	0.015	C.3	1	<0>1	0.062	
25	 Cl1	0.130	-6.719	-0.037	Cl	1	<0>1	-0.039	
26	 Cl2	-1.898	-3.403	2.615	Cl	1	<0>1	-0.033	
27	 Cl3	-6.243	-5.264	0.003	Cl	1	<0>1	-0.022	
28	  H1	1.004	1.880	0.003	 H	1	<0>1	0.104	
29	  H2	-0.545	1.864	-0.873	 H	1	<0>1	0.099	
30	  H3	-0.529	1.854	0.907	 H	1	<0>1	0.079	
31	  H4	3.315	-2.614	-0.030	 H	1	<0>1	0.176	
32	  H5	4.422	-4.428	-0.036	 H	1	<0>1	0.141	
33	  H6	5.715	-6.520	-0.053	 H	1	<0>1	0.141	
34	  H7	4.555	-8.689	-0.070	 H	1	<0>1	0.141	
35	  H8	2.097	-8.778	-0.068	 H	1	<0>1	0.142	
36	  H9	-2.860	-2.489	-2.072	 H	1	<0>1	0.154	
37	 H10	-4.944	-3.794	-2.059	 H	1	<0>1	0.159	
38	 H11	-4.350	-4.740	2.061	 H	1	<0>1	0.160	
39	 H12	-2.431	0.933	-0.569	 H	1	<0>1	0.160	
40	 H13	-3.291	-0.619	-0.419	 H	1	<0>1	0.143	
41	 H14	-3.763	0.841	1.406	 H	1	<0>1	0.443	
42	 H15	-2.963	-0.496	1.940	 H	1	<0>1	0.430	
43	 H16	-2.167	0.940	1.801	 H	1	<0>1	0.435	
@<TRIPOS>BOND
1 1 3 1
2 1 28 1
3 1 29 1
4 1 30 1
5 2 6 1
6 2 9 1
7 3 4 2
8 3 5 1
9 5 7 2
10 5 24 1
11 2 7 1
12 7 18 1
13 8 41 1
14 8 42 1
15 8 43 1
16 4 9 1
17 9 10 2
18 10 11 1
19 10 31 1
20 6 11 2
21 11 12 1
22 12 13 ar
23 12 17 ar
24 13 14 ar
25 13 32 1
26 14 15 ar
27 14 33 1
28 15 16 ar
29 15 34 1
30 16 17 ar
31 16 35 1
32 17 25 1
33 18 19 ar
34 18 23 ar
35 19 20 ar
36 19 36 1
37 20 21 ar
38 20 37 1
39 21 22 ar
40 21 27 1
41 22 23 ar
42 22 38 1
43 23 26 1
44 8 24 1
45 24 39 1
46 24 40 1
@<TRIPOS>SUBSTRUCTURE
1	<0>1	1	GROUP	1 ****	<0>
@<TRIPOS>MOLECULE
CHEMBL470681
45 46 1                 
SMALL
USER_CHARGES
@<TRIPOS>ATOM
1	  C1	-0.019	1.526	0.010	C.3	1	<0>1	-0.127	
2	  N1	4.354	-0.726	-0.828	N.4	1	<0>1	-0.495	
3	  O1	6.691	-1.853	-1.221	O.2	1	<0>1	-0.509	
4	  C2	1.417	2.055	-0.000	C.3	1	<0>1	-0.142	
5	  N2	7.242	-2.261	0.889	N.pl3	1	<0>1	-0.595	
6	  C3	2.003	1.911	-1.406	C.3	1	<0>1	-0.124	
7	  N3	8.222	-5.045	-0.801	N.1	1	<0>1	-0.376	
8	  C4	2.370	0.447	-1.658	C.3	1	<0>1	-0.150	
9	  C5	3.077	-0.122	-0.425	C.3	1	<0>1	0.015	
10	  C6	2.191	-1.187	0.225	C.3	1	<0>1	-0.145	
11	  C7	1.056	-0.506	0.991	C.3	1	<0>1	-0.126	
12	  C8	0.002	-0.004	0.002	C.3	1	<0>1	-0.135	
13	  C9	5.087	-1.164	0.367	C.3	1	<0>1	-0.031	
14	 C10	6.397	-1.784	-0.046	C.2	1	<0>1	0.520	
15	 C11	7.008	-2.247	2.345	C.3	1	<0>1	0.060	
16	 C12	8.423	-2.300	2.974	C.3	1	<0>1	0.088	
17	 C13	9.164	-3.247	1.994	C.3	1	<0>1	-0.154	
18	 C14	8.546	-2.887	0.627	C.3	1	<0>1	0.245	
19	 C15	8.363	-4.105	-0.179	C.1	1	<0>1	0.177	
20	  F1	8.379	-2.843	4.262	 F	1	<0>1	-0.182	
21	  H1	8.883	-1.311	2.984	 H	1	<0>1	0.120	
22	  H2	9.194	-2.187	0.101	 H	1	<0>1	0.139	
23	  H3	-0.529	1.877	0.907	 H	1	<0>1	0.070	
24	  H4	-0.546	1.887	-0.873	 H	1	<0>1	0.071	
25	  H5	1.419	3.106	0.288	 H	1	<0>1	0.075	
26	  H6	2.020	1.484	0.705	 H	1	<0>1	0.073	
27	  H7	1.266	2.232	-2.142	 H	1	<0>1	0.086	
28	  H8	2.897	2.529	-1.493	 H	1	<0>1	0.072	
29	  H9	1.464	-0.127	-1.853	 H	1	<0>1	0.111	
30	 H10	3.034	0.381	-2.519	 H	1	<0>1	0.086	
31	 H11	3.264	0.680	0.289	 H	1	<0>1	0.152	
32	 H12	1.773	-1.832	-0.547	 H	1	<0>1	0.095	
33	 H13	2.788	-1.784	0.914	 H	1	<0>1	0.083	
34	 H14	0.599	-1.221	1.676	 H	1	<0>1	0.083	
35	 H15	1.453	0.336	1.558	 H	1	<0>1	0.084	
36	 H16	-0.978	-0.382	0.292	 H	1	<0>1	0.072	
37	 H17	0.246	-0.359	-0.999	 H	1	<0>1	0.072	
38	 H18	4.177	-1.520	-1.424	 H	1	<0>1	0.433	
39	 H19	5.278	-0.306	1.011	 H	1	<0>1	0.167	
40	 H20	4.492	-1.900	0.909	 H	1	<0>1	0.166	
41	 H21	6.497	-1.330	2.638	 H	1	<0>1	0.106	
42	 H22	6.427	-3.119	2.644	 H	1	<0>1	0.103	
43	 H23	10.236	-3.047	2.000	 H	1	<0>1	0.124	
44	 H24	8.964	-4.290	2.241	 H	1	<0>1	0.107	
45	 H25	4.905	-0.045	-1.330	 H	1	<0>1	0.436	
@<TRIPOS>BOND
1 1 4 1
2 1 12 1
3 1 23 1
4 1 24 1
5 2 13 1
6 2 38 1
7 2 45 1
8 4 6 1
9 4 25 1
10 4 26 1
11 5 15 1
12 5 18 1
13 6 8 1
14 6 27 1
15 6 28 1
16 8 9 1
17 8 29 1
18 8 30 1
19 2 9 1
20 9 10 1
21 9 31 1
22 10 11 1
23 10 32 1
24 10 33 1
25 11 12 1
26 11 34 1
27 11 35 1
28 12 36 1
29 12 37 1
30 13 14 1
31 13 39 1
32 13 40 1
33 3 14 2
34 5 14 1
35 15 16 1
36 15 41 1
37 15 42 1
38 16 17 1
39 16 20 1
40 16 21 1
41 17 18 1
42 17 43 1
43 17 44 1
44 18 19 1
45 18 22 1
46 7 19 3
@<TRIPOS>SUBSTRUCTURE
1	<0>1	1	GROUP	1 ****	<0>
@<TRIPOS>MOLECULE
CHEMBL210193
55 57 1                 
SMALL
USER_CHARGES
@<TRIPOS>ATOM
1	  C1	-1.951	1.493	0.747	C.3	1	<0>1	0.034	
2	  N1	-1.409	-6.267	-0.017	N.pl3	1	<0>1	-0.678	
3	  O1	-2.065	0.069	0.781	O.3	1	<0>1	-0.350	
4	  C2	-1.188	-0.632	0.036	C.2	1	<0>1	0.506	
5	  N2	-2.641	-8.240	0.183	N.pl3	1	<0>1	-0.762	
6	  O2	-0.350	-0.051	-0.624	O.co2	1	<0>1	-0.500	
7	  C3	-1.245	-2.106	0.023	C.2	1	<0>1	-0.136	
8	  N3	-2.930	-10.913	-0.785	N.4	1	<0>1	-0.508	
9	  O3	-3.627	-6.251	0.096	O.2	1	<0>1	-0.546	
10	  C4	-2.213	-2.776	0.777	C.2	1	<0>1	-0.038	
11	  N4	-3.273	-14.174	-2.545	N.pl3	1	<0>1	-0.592	
12	  O4	-2.529	-12.158	-3.099	O.2	1	<0>1	-0.513	
13	  C5	-2.264	-4.152	0.762	C.2	1	<0>1	-0.133	
14	  N5	-4.538	-13.622	-5.654	N.1	1	<0>1	-0.384	
15	  C6	-1.354	-4.875	-0.004	C.2	1	<0>1	0.188	
16	  C7	-0.390	-4.211	-0.755	C.2	1	<0>1	-0.154	
17	  C8	-0.336	-2.835	-0.749	C.2	1	<0>1	-0.030	
18	  C9	-2.596	-6.896	0.088	C.2	1	<0>1	0.708	
19	 C10	-3.932	-8.923	0.297	C.3	1	<0>1	0.119	
20	 C11	-3.703	-10.433	0.389	C.3	1	<0>1	0.024	
21	 C12	-5.048	-11.188	0.307	C.3	1	<0>1	-0.135	
22	 C13	-4.745	-12.458	-0.514	C.3	1	<0>1	-0.138	
23	 C14	-3.243	-12.365	-0.859	C.3	1	<0>1	0.016	
24	 C15	-2.989	-12.890	-2.248	C.2	1	<0>1	0.523	
25	 C16	-3.839	-15.167	-1.613	C.3	1	<0>1	0.082	
26	 C17	-3.405	-16.539	-2.185	C.3	1	<0>1	-0.131	
27	 C18	-3.511	-16.288	-3.713	C.3	1	<0>1	-0.125	
28	 C19	-3.076	-14.814	-3.854	C.3	1	<0>1	0.240	
29	 C20	-3.901	-14.141	-4.870	C.1	1	<0>1	0.178	
30	  H1	-3.184	-10.682	1.315	 H	1	<0>1	0.160	
31	  H2	-2.650	-12.917	-0.130	 H	1	<0>1	0.176	
32	  H3	-2.024	-14.765	-4.135	 H	1	<0>1	0.132	
33	  H4	-2.715	1.934	1.388	 H	1	<0>1	0.106	
34	  H5	-0.964	1.788	1.102	 H	1	<0>1	0.064	
35	  H6	-2.089	1.844	-0.276	 H	1	<0>1	0.064	
36	  H7	-2.919	-2.216	1.372	 H	1	<0>1	0.146	
37	  H8	-3.011	-4.670	1.345	 H	1	<0>1	0.144	
38	  H9	0.315	-4.775	-1.348	 H	1	<0>1	0.138	
39	 H10	0.410	-2.321	-1.336	 H	1	<0>1	0.147	
40	 H11	-0.592	-6.784	-0.101	 H	1	<0>1	0.411	
41	 H12	-1.819	-8.754	0.176	 H	1	<0>1	0.394	
42	 H13	-4.448	-8.578	1.193	 H	1	<0>1	0.122	
43	 H14	-4.539	-8.701	-0.581	 H	1	<0>1	0.100	
44	 H15	-5.393	-11.456	1.306	 H	1	<0>1	0.127	
45	 H16	-5.794	-10.577	-0.201	 H	1	<0>1	0.112	
46	 H17	-4.942	-13.350	0.082	 H	1	<0>1	0.129	
47	 H18	-5.343	-12.471	-1.425	 H	1	<0>1	0.106	
48	 H19	-3.235	-10.444	-1.624	 H	1	<0>1	0.439	
49	 H20	-3.429	-15.025	-0.613	 H	1	<0>1	0.093	
50	 H21	-4.926	-15.091	-1.593	 H	1	<0>1	0.090	
51	 H22	-2.380	-16.776	-1.898	 H	1	<0>1	0.092	
52	 H23	-4.089	-17.327	-1.870	 H	1	<0>1	0.105	
53	 H24	-2.835	-16.946	-4.259	 H	1	<0>1	0.111	
54	 H25	-4.537	-16.418	-4.054	 H	1	<0>1	0.093	
55	 H26	-1.941	-10.771	-0.638	 H	1	<0>1	0.435	
@<TRIPOS>BOND
1 1 3 1
2 1 33 1
3 1 34 1
4 1 35 1
5 2 18 1
6 2 40 1
7 3 4 1
8 4 6 2
9 4 7 1
10 5 19 1
11 5 41 1
12 7 10 ar
13 7 17 ar
14 8 48 1
15 8 55 1
16 10 13 ar
17 10 36 1
18 11 25 1
19 11 28 1
20 13 15 ar
21 13 37 1
22 2 15 1
23 15 16 ar
24 16 17 ar
25 16 38 1
26 17 39 1
27 5 18 1
28 9 18 2
29 19 20 1
30 19 42 1
31 19 43 1
32 8 20 1
33 20 21 1
34 20 30 1
35 21 22 1
36 21 44 1
37 21 45 1
38 22 23 1
39 22 46 1
40 22 47 1
41 8 23 1
42 23 24 1
43 23 31 1
44 11 24 1
45 12 24 2
46 25 26 1
47 25 49 1
48 25 50 1
49 26 27 1
50 26 51 1
51 26 52 1
52 27 28 1
53 27 53 1
54 27 54 1
55 28 29 1
56 28 32 1
57 14 29 3
@<TRIPOS>SUBSTRUCTURE
1	<0>1	1	GROUP	1 ****	<0>
@<TRIPOS>MOLECULE
CHEMBL216178
54 56 1                 
SMALL
USER_CHARGES
@<TRIPOS>ATOM
1	  C1	-1.433	0.420	-0.581	C.2	1	<0>1	-0.068	
2	  N1	1.276	0.144	-0.817	N.2	1	<0>1	-0.479	
3	  O1	1.826	-4.781	-2.227	O.2	1	<0>1	-0.522	
4	  C2	-0.650	1.469	-1.036	C.2	1	<0>1	-0.167	
5	  N2	2.481	-4.819	-0.108	N.pl3	1	<0>1	-0.722	
6	  O2	3.569	-1.819	-3.296	O.2	1	<0>1	-0.543	
7	  C3	0.716	1.293	-1.142	C.2	1	<0>1	0.102	
8	  N3	3.447	-2.142	-1.105	N.pl3	1	<0>1	-0.572	
9	  C4	0.562	-0.876	-0.381	C.2	1	<0>1	0.114	
10	  N4	6.131	-2.063	-4.320	N.4	1	<0>1	-0.638	
11	  C5	-0.810	-0.773	-0.248	C.2	1	<0>1	-0.161	
12	  C6	1.250	-2.168	-0.023	C.3	1	<0>1	-0.092	
13	  C7	2.077	-2.653	-1.216	C.3	1	<0>1	0.142	
14	  C8	2.118	-4.165	-1.224	C.2	1	<0>1	0.508	
15	  C9	2.894	-4.074	1.086	C.3	1	<0>1	0.075	
16	 C10	4.265	-3.443	0.832	C.3	1	<0>1	-0.161	
17	 C11	4.101	-2.064	0.202	C.3	1	<0>1	0.088	
18	 C12	4.108	-1.750	-2.212	C.2	1	<0>1	0.513	
19	 C13	5.517	-1.225	-2.103	C.3	1	<0>1	-0.169	
20	 C14	6.031	-0.853	-3.494	C.3	1	<0>1	0.050	
21	 C15	7.412	-0.205	-3.371	C.3	1	<0>1	-0.096	
22	 C16	7.866	0.273	-4.726	C.2	1	<0>1	-0.148	
23	 C17	8.672	-0.533	-5.508	C.2	1	<0>1	-0.115	
24	 C18	9.089	-0.095	-6.753	C.2	1	<0>1	0.073	
25	 C19	8.698	1.153	-7.216	C.2	1	<0>1	0.121	
26	 C20	7.891	1.959	-6.432	C.2	1	<0>1	-0.153	
27	 C21	7.470	1.516	-5.189	C.2	1	<0>1	0.142	
28	  F1	6.677	2.300	-4.426	 F	1	<0>1	-0.114	
29	  F2	9.105	1.581	-8.430	 F	1	<0>1	-0.105	
30	  F3	9.877	-0.882	-7.517	 F	1	<0>1	-0.111	
31	  H1	1.627	-2.294	-2.142	 H	1	<0>1	0.133	
32	  H2	5.341	-0.150	-3.961	 H	1	<0>1	0.154	
33	  H3	-2.503	0.530	-0.483	 H	1	<0>1	0.140	
34	  H4	-1.102	2.413	-1.304	 H	1	<0>1	0.139	
35	  H5	1.334	2.105	-1.496	 H	1	<0>1	0.156	
36	  H6	-1.389	-1.611	0.111	 H	1	<0>1	0.137	
37	  H7	1.907	-2.005	0.832	 H	1	<0>1	0.115	
38	  H8	0.503	-2.919	0.231	 H	1	<0>1	0.102	
39	  H9	2.470	-5.788	-0.092	 H	1	<0>1	0.407	
40	 H10	2.166	-3.291	1.298	 H	1	<0>1	0.098	
41	 H11	2.958	-4.754	1.936	 H	1	<0>1	0.099	
42	 H12	4.799	-3.346	1.778	 H	1	<0>1	0.102	
43	 H13	4.838	-4.081	0.160	 H	1	<0>1	0.077	
44	 H14	3.498	-1.440	0.863	 H	1	<0>1	0.093	
45	 H15	5.083	-1.608	0.082	 H	1	<0>1	0.095	
46	 H16	5.527	-0.343	-1.463	 H	1	<0>1	0.149	
47	 H17	6.158	-1.994	-1.672	 H	1	<0>1	0.124	
48	 H18	7.356	0.642	-2.687	 H	1	<0>1	0.133	
49	 H19	8.123	-0.936	-2.987	 H	1	<0>1	0.113	
50	 H20	8.977	-1.504	-5.148	 H	1	<0>1	0.161	
51	 H21	7.586	2.930	-6.792	 H	1	<0>1	0.171	
52	 H22	6.770	-2.714	-3.888	 H	1	<0>1	0.428	
53	 H23	5.220	-2.491	-4.402	 H	1	<0>1	0.445	
54	 H24	6.470	-1.818	-5.238	 H	1	<0>1	0.433	
@<TRIPOS>BOND
1 1 4 ar
2 1 11 ar
3 1 33 1
4 2 9 ar
5 4 7 ar
6 4 34 1
7 5 15 1
8 5 39 1
9 2 7 ar
10 7 35 1
11 8 18 1
12 9 11 ar
13 9 12 1
14 10 52 1
15 10 53 1
16 10 54 1
17 11 36 1
18 12 13 1
19 12 37 1
20 12 38 1
21 8 13 1
22 13 14 1
23 13 31 1
24 3 14 2
25 5 14 1
26 15 16 1
27 15 40 1
28 15 41 1
29 16 17 1
30 16 42 1
31 16 43 1
32 8 17 1
33 17 44 1
34 17 45 1
35 6 18 2
36 18 19 1
37 19 20 1
38 19 46 1
39 19 47 1
40 10 20 1
41 20 21 1
42 20 32 1
43 21 22 1
44 21 48 1
45 21 49 1
46 22 23 ar
47 22 27 ar
48 23 24 ar
49 23 50 1
50 24 25 ar
51 24 30 1
52 25 26 ar
53 25 29 1
54 26 27 ar
55 26 51 1
56 27 28 1
@<TRIPOS>SUBSTRUCTURE
1	<0>1	1	GROUP	1 ****	<0>
@<TRIPOS>MOLECULE
ZINC04258914
   51    55     0     0     0
SMALL
USER_CHARGES
N-[(4-fluorobenzoyl)-oxo-BLAHyl]furan-2-carboxamide
@<TRIPOS>ATOM
      1 C1          5.1191   -3.1692   -8.3723 C.2       1 <0>        -0.2242
      2 C2          5.3462   -2.5014   -7.1588 C.2       1 <0>        -0.1140
      3 C3          4.1642   -1.9154   -6.8060 C.2       1 <0>        -0.0798
      4 O1          3.2550   -2.2018   -7.7607 O.3       1 <0>        -0.1659
      5 C4          3.8271   -2.9577   -8.7070 C.2       1 <0>        -0.0029
      6 C5          3.9266   -1.1107   -5.6035 C.2       1 <0>         0.6122
      7 O2          4.8301   -0.9199   -4.8105 O.2       1 <0>        -0.4950
      8 N1          2.7077   -0.5823   -5.3763 N.am      1 <0>        -0.6505
      9 C6          2.4521    0.0999   -4.1802 C.2       1 <0>         0.0071
     10 C7          1.9852    1.3862   -4.2004 C.2       1 <0>        -0.0170
     11 C8          1.7149    2.0254   -2.9855 C.2       1 <0>        -0.2262
     12 C9          1.9242    1.3858   -1.8050 C.2       1 <0>         0.1813
     13 N2          2.4707    0.1459   -1.7790 N.am      1 <0>        -0.4755
     14 C10         2.6713   -0.5277   -2.9386 C.2       1 <0>         0.5187
     15 O3          3.0449   -1.6893   -2.9061 O.2       1 <0>        -0.5268
     16 C11         2.8825   -0.5212   -0.5438 C.3       1 <0>         0.1005
     17 C12         2.2015    0.0592    0.6822 C.3       1 <0>        -0.1184
     18 H1          2.7462   -0.2787    1.5638 H         1 <0>         0.1095
     19 C13         2.2833    1.5857    0.6485 C.3       1 <0>        -0.1168
     20 C14         1.4688    2.0876   -0.5464 C.3       1 <0>        -0.0699
     21 H2          1.5738    3.1666   -0.6598 H         1 <0>         0.1224
     22 C15        -0.0070    1.7208   -0.3142 C.3       1 <0>         0.1182
     23 N3         -0.0814    0.2558   -0.1943 N.am      1 <0>        -0.6088
     24 C16         0.7584   -0.4088    0.8092 C.3       1 <0>         0.0956
     25 C17        -0.9021   -0.4595   -0.9887 C.2       1 <0>         0.5681
     26 O4         -1.6528    0.1097   -1.7570 O.2       1 <0>        -0.5223
     27 C18        -0.8895   -1.9354   -0.9259 C.ar      1 <0>        -0.1442
     28 C19        -0.8737   -2.6868   -2.1029 C.ar      1 <0>        -0.0320
     29 C20        -0.8552   -4.0636   -2.0384 C.ar      1 <0>        -0.1522
     30 C21        -0.8653   -4.7026   -0.8079 C.ar      1 <0>         0.1252
     31 C22        -0.8872   -3.9615    0.3637 C.ar      1 <0>        -0.1580
     32 C23        -0.8991   -2.5842    0.3108 C.ar      1 <0>        -0.0664
     33 F1         -0.8533   -6.0524   -0.7504 F         1 <0>        -0.1319
     34 H3          5.8421   -3.7413   -8.9348 H         1 <0>         0.1591
     35 H4          6.2752   -2.4603   -6.6096 H         1 <0>         0.1609
     36 H5          3.3366   -3.3359   -9.5917 H         1 <0>         0.2126
     37 H6          2.0075   -0.6744   -6.0413 H         1 <0>         0.4137
     38 H7          1.8285    1.8991   -5.1378 H         1 <0>         0.1401
     39 H8          1.3359    3.0367   -2.9860 H         1 <0>         0.1495
     40 H9          3.9616   -0.4184   -0.4300 H         1 <0>         0.0879
     41 H10         2.6364   -1.5806   -0.6159 H         1 <0>         0.0990
     42 H11         1.8721    1.9957    1.5710 H         1 <0>         0.0889
     43 H12         3.3228    1.8952    0.5401 H         1 <0>         0.0813
     44 H13        -0.6093    2.0546   -1.1592 H         1 <0>         0.1051
     45 H14        -0.3647    2.1865    0.6040 H         1 <0>         0.0886
     46 H15         0.3877   -0.1695    1.8059 H         1 <0>         0.0839
     47 H16         0.7143   -1.4876    0.6596 H         1 <0>         0.1015
     48 H17        -0.8707   -2.1900   -3.0618 H         1 <0>         0.1372
     49 H18        -0.8375   -4.6456   -2.9480 H         1 <0>         0.1440
     50 H19        -0.8947   -4.4642    1.3195 H         1 <0>         0.1449
     51 H20        -0.9155   -2.0078    1.2240 H         1 <0>         0.1418
@<TRIPOS>BOND
     1    1    5 2
     2    1    2 1
     3    1   34 1
     4    2    3 2
     5    2   35 1
     6    3    4 1
     7    3    6 1
     8    4    5 1
     9    5   36 1
    10    6    7 2
    11    6    8 am
    12    8    9 1
    13    8   37 1
    14    9   14 1
    15    9   10 2
    16   10   11 1
    17   10   38 1
    18   11   12 2
    19   11   39 1
    20   12   20 1
    21   12   13 1
    22   13   14 am
    23   13   16 1
    24   14   15 2
    25   16   17 1
    26   16   40 1
    27   16   41 1
    28   17   18 1
    29   17   24 1
    30   17   19 1
    31   19   20 1
    32   19   42 1
    33   19   43 1
    34   20   21 1
    35   20   22 1
    36   22   23 1
    37   22   44 1
    38   22   45 1
    39   23   24 1
    40   23   25 am
    41   24   46 1
    42   24   47 1
    43   25   26 2
    44   25   27 1
    45   27   32 ar
    46   27   28 ar
    47   28   29 ar
    48   28   48 1
    49   29   30 ar
    50   29   49 1
    51   30   31 ar
    52   30   33 1
    53   31   32 ar
    54   31   50 1
    55   32   51 1
@<TRIPOS>MOLECULE
ZINC00651135
   34    36     0     0     0
SMALL
USER_CHARGES
N-(4,8-dimethyl-2-oxo-7-thia-3,5-diazabicyclo[4.3.0]nona-4,8,10-trien-3-yl)-4-iodo-1-methyl-pyrazole-3-carboxamide
@<TRIPOS>ATOM
      1 C1         -1.1677   -0.9542    0.0081 C.3       1 <0>        -0.0698
      2 C2          0.0021   -0.0041    0.0020 C.2       1 <0>        -0.1541
      3 C3         -0.0161    1.3384    0.0094 C.2       1 <0>        -0.0938
      4 C4          1.2405    2.0638    0.0013 C.2       1 <0>        -0.2374
      5 C5          2.3928    1.2574   -0.0140 C.2       1 <0>         0.1008
      6 S1          1.7418   -0.3932   -0.0167 S.3       1 <0>         0.1533
      7 N1          3.6161    1.7786   -0.0229 N.2       1 <0>        -0.4745
      8 C6          3.7962    3.0723   -0.0177 C.2       1 <0>         0.4165
      9 N2          2.7424    3.9284   -0.0026 N.am      1 <0>        -0.3227
     10 C7          1.4742    3.4777    0.0076 C.2       1 <0>         0.5601
     11 O1          0.5393    4.2596    0.0219 O.2       1 <0>        -0.5013
     12 N3          2.9800    5.3091    0.0030 N.am      1 <0>        -0.5188
     13 C8          2.7857    6.0309   -1.1185 C.2       1 <0>         0.6112
     14 O2          2.4042    5.4839   -2.1350 O.2       1 <0>        -0.4754
     15 C9          3.0362    7.4864   -1.1126 C.2       1 <0>         0.0176
     16 C10         2.8783    8.3726   -2.2048 C.2       1 <0>        -0.1678
     17 C11         3.2211    9.5943   -1.7319 C.2       1 <0>         0.0348
     18 N4          3.5623    9.4394   -0.4343 N.pl3     1 <0>        -0.2704
     19 N5          3.4439    8.2081   -0.0876 N.2       1 <0>        -0.2473
     20 C12         3.9977   10.5213    0.4524 C.3       1 <0>         0.0813
     21 I1          2.2461    7.8952   -4.1443 I         1 <0>         0.0368
     22 C13         5.1984    3.6244   -0.0281 C.3       1 <0>        -0.1083
     23 H1         -1.4595   -1.1777   -1.0181 H         1 <0>         0.0834
     24 H2         -0.8837   -1.8768    0.5143 H         1 <0>         0.0784
     25 H3         -2.0058   -0.4952    0.5324 H         1 <0>         0.0855
     26 H4         -0.9550    1.8721    0.0168 H         1 <0>         0.1450
     27 H5          3.2844    5.7456    0.8140 H         1 <0>         0.4326
     28 H6          3.2214   10.5199   -2.2884 H         1 <0>         0.1952
     29 H7          3.1299   10.9558    0.9487 H         1 <0>         0.0932
     30 H8          4.6832   10.1239    1.2009 H         1 <0>         0.1035
     31 H9          4.5039   11.2891   -0.1327 H         1 <0>         0.1038
     32 H10         5.9129    2.8013   -0.0394 H         1 <0>         0.1126
     33 H11         5.3397    4.2403   -0.9162 H         1 <0>         0.0978
     34 H12         5.3567    4.2308    0.8636 H         1 <0>         0.0987
@<TRIPOS>BOND
     1    1    2 1
     2    1   23 1
     3    1   24 1
     4    1   25 1
     5    2    6 1
     6    2    3 2
     7    3    4 1
     8    3   26 1
     9    4   10 1
    10    4    5 2
    11    5    6 1
    12    5    7 1
    13    7    8 2
    14    8    9 1
    15    8   22 1
    16    9   10 am
    17    9   12 1
    18   10   11 2
    19   12   13 am
    20   12   27 1
    21   13   14 2
    22   13   15 1
    23   15   19 2
    24   15   16 1
    25   16   17 2
    26   16   21 1
    27   17   18 1
    28   17   28 1
    29   18   19 1
    30   18   20 1
    31   20   29 1
    32   20   30 1
    33   20   31 1
    34   22   32 1
    35   22   33 1
    36   22   34 1
@<TRIPOS>MOLECULE
ZINC05679556
   40    44     0     0     0
SMALL
USER_CHARGES
(2-oxo-7-thia-1,5-diazabicyclo[4.3.0]nona-3,5,8-trien-4-yl)methylBLAHdione
@<TRIPOS>ATOM
      1 C1         -0.6656    3.8607   -2.4910 C.2       1 <0>        -0.1387
      2 C2         -1.1707    4.5185   -3.5593 C.2       1 <0>        -0.1712
      3 S1         -2.4968    5.4593   -2.8189 S.3       1 <0>         0.0774
      4 C3         -2.2779    4.9072   -1.1493 C.2       1 <0>        -0.1197
      5 C4         -1.2245    4.0460   -1.2270 C.2       1 <0>        -0.1353
      6 C5         -0.7227    3.3497    0.0266 C.3       1 <0>         0.1917
      7 C6         -1.2285    4.0714    1.2670 C.3       1 <0>        -0.1172
      8 C7         -2.7459    4.2668    1.1802 C.3       1 <0>        -0.1088
      9 C8         -3.0535    5.2831    0.0705 C.3       1 <0>        -0.0491
     10 C9          0.7848    3.2865    0.0120 C.2       1 <0>         0.5353
     11 O1          1.5594    4.2192    0.0098 O.2       1 <0>        -0.4470
     12 N1          1.0881    1.9711    0.0023 N.am      1 <0>        -0.5740
     13 C10        -0.0144    1.2112    0.0087 C.2       1 <0>         0.7048
     14 O2          0.0021   -0.0041    0.0020 O.2       1 <0>        -0.5177
     15 N2         -1.1443    1.9455    0.0176 N.am      1 <0>        -0.7129
     16 C11         2.4537    1.4409   -0.0126 C.3       1 <0>         0.1733
     17 C12         2.9092    1.2663   -1.4385 C.2       1 <0>         0.1786
     18 C13         3.9492    2.0198   -1.9399 C.2       1 <0>        -0.2738
     19 C14         4.3599    1.8407   -3.2612 C.2       1 <0>         0.5273
     20 O3          5.2836    2.5018   -3.7090 O.2       1 <0>        -0.5143
     21 N3          3.7242    0.9280   -4.0549 N.am      1 <0>        -0.4781
     22 C15         4.0076    0.6426   -5.3690 C.2       1 <0>         0.0358
     23 C16         3.3110   -0.2747   -6.0395 C.2       1 <0>        -0.1761
     24 S2          2.1482   -0.8278   -4.8019 S.3       1 <0>         0.1474
     25 C17         2.6989    0.2268   -3.4782 C.2       1 <0>         0.3292
     26 N4          2.3113    0.3862   -2.2373 N.2       1 <0>        -0.4772
     27 H1          0.1723    3.1910   -2.6170 H         1 <0>         0.1183
     28 H2         -0.8546    4.4841   -4.5915 H         1 <0>         0.1883
     29 H3         -0.9901    3.4806    2.1514 H         1 <0>         0.0862
     30 H4         -0.7425    5.0442    1.3426 H         1 <0>         0.0947
     31 H5         -3.1208    4.6416    2.1326 H         1 <0>         0.0896
     32 H6         -3.2238    3.3154    0.9466 H         1 <0>         0.0719
     33 H7         -2.7608    6.2810    0.3970 H         1 <0>         0.0946
     34 H8         -4.1197    5.2702   -0.1555 H         1 <0>         0.0916
     35 H9         -2.0551    1.6116    0.0195 H         1 <0>         0.4408
     36 H10         3.1191    2.1364    0.4988 H         1 <0>         0.1252
     37 H11         2.4748    0.4771    0.4961 H         1 <0>         0.1281
     38 H12         4.4465    2.7435   -1.3112 H         1 <0>         0.1695
     39 H13         4.8078    1.1703   -5.8665 H         1 <0>         0.1877
     40 H14         3.4210   -0.5989   -7.0638 H         1 <0>         0.2238
@<TRIPOS>BOND
     1    1    5 1
     2    1    2 2
     3    1   27 1
     4    2    3 1
     5    2   28 1
     6    3    4 1
     7    4    9 1
     8    4    5 2
     9    5    6 1
    10    6   15 1
    11    6    7 1
    12    6   10 1
    13    7    8 1
    14    7   29 1
    15    7   30 1
    16    8    9 1
    17    8   31 1
    18    8   32 1
    19    9   33 1
    20    9   34 1
    21   10   11 2
    22   10   12 am
    23   12   13 am
    24   12   16 1
    25   13   14 2
    26   13   15 am
    27   15   35 1
    28   16   17 1
    29   16   36 1
    30   16   37 1
    31   17   26 1
    32   17   18 2
    33   18   19 1
    34   18   38 1
    35   19   20 2
    36   19   21 am
    37   21   25 1
    38   21   22 1
    39   22   23 2
    40   22   39 1
    41   23   24 1
    42   23   40 1
    43   24   25 1
    44   25   26 2
@<TRIPOS>MOLECULE
ZINC06111183
   46    49     0     0     0
SMALL
USER_CHARGES
2-(7,8-dimethyl-5-oxo-9-thia-2,4-diazabicyclo[4.3.0]nona-2,7,10-trien-4-yl)-N-(7,10-dioxabicyclo[4.4.0]deca-2,4,11-trien-8-ylmethyl)acetamide
@<TRIPOS>ATOM
      1 C1          0.8740    6.2172    0.0242 C.3       1 <0>        -0.1050
      2 C2         -0.2858    5.2551    0.0312 C.2       1 <0>        -0.0610
      3 C3         -1.5480    5.7127    0.0457 C.2       1 <0>        -0.1638
      4 S1         -2.5273    4.2229    0.0478 S.3       1 <0>         0.1400
      5 C4         -1.2136    3.0304    0.0291 C.2       1 <0>         0.1019
      6 C5         -0.0518    3.8232    0.0217 C.2       1 <0>        -0.2377
      7 C6          1.1880    3.1045    0.0065 C.2       1 <0>         0.5606
      8 O1          2.2501    3.7025   -0.0004 O.2       1 <0>        -0.5178
      9 N1          1.1610    1.7588    0.0004 N.am      1 <0>        -0.5164
     10 C7         -0.0126    1.0758    0.0080 C.2       1 <0>         0.3938
     11 N2         -1.1588    1.7018    0.0168 N.2       1 <0>        -0.4871
     12 C8          2.4235    1.0158   -0.0151 C.3       1 <0>         0.0723
     13 C9          2.8432    0.7682   -1.4412 C.2       1 <0>         0.5033
     14 O2          2.1553    1.1726   -2.3546 O.2       1 <0>        -0.5219
     15 N3          3.9828    0.0975   -1.7015 N.am      1 <0>        -0.7195
     16 C10         4.3907   -0.1432   -3.0879 C.3       1 <0>         0.1322
     17 C11         5.7093   -0.9192   -3.1041 C.3       1 <0>         0.0394
     18 H1          5.5773   -1.8784   -2.6036 H         1 <0>         0.0954
     19 C12         6.1571   -1.1482   -4.5540 C.3       1 <0>         0.0300
     20 O3          7.3973   -1.8632   -4.5322 O.3       1 <0>        -0.3023
     21 C13         8.3471   -1.4139   -3.6670 C.ar      1 <0>         0.0472
     22 C14         9.6652   -1.8104   -3.8373 C.ar      1 <0>        -0.1126
     23 C15        10.6403   -1.3655   -2.9648 C.ar      1 <0>        -0.1134
     24 C16        10.3048   -0.5242   -1.9203 C.ar      1 <0>        -0.1141
     25 C17         8.9935   -0.1242   -1.7459 C.ar      1 <0>        -0.1122
     26 C18         8.0102   -0.5663   -2.6184 C.ar      1 <0>         0.0498
     27 O4          6.7236   -0.1614   -2.4358 O.3       1 <0>        -0.3024
     28 C19        -2.0230    7.1428    0.0571 C.3       1 <0>        -0.0678
     29 H2          1.1433    6.4543   -1.0051 H         1 <0>         0.0717
     30 H3          0.5907    7.1316    0.5454 H         1 <0>         0.0678
     31 H4          1.7270    5.7617    0.5272 H         1 <0>         0.0819
     32 H5          0.0021   -0.0041    0.0020 H         1 <0>         0.2153
     33 H6          3.1928    1.5960    0.4945 H         1 <0>         0.1362
     34 H7          2.2901    0.0619    0.4952 H         1 <0>         0.1325
     35 H8          4.5329   -0.2259   -0.9710 H         1 <0>         0.4091
     36 H9          3.6214   -0.7234   -3.5974 H         1 <0>         0.0976
     37 H10         4.5242    0.8106   -3.5982 H         1 <0>         0.0844
     38 H11         5.4047   -1.7330   -5.0832 H         1 <0>         0.1276
     39 H12         6.2950   -0.1886   -5.0521 H         1 <0>         0.0831
     40 H13         9.9299   -2.4677   -4.6524 H         1 <0>         0.1358
     41 H14        11.6661   -1.6754   -3.0993 H         1 <0>         0.1341
     42 H15        11.0688   -0.1790   -1.2395 H         1 <0>         0.1339
     43 H16         8.7343    0.5336   -0.9295 H         1 <0>         0.1352
     44 H17        -2.1477    7.4924   -0.9678 H         1 <0>         0.0815
     45 H18        -2.9770    7.2047    0.5806 H         1 <0>         0.0764
     46 H19        -1.2879    7.7658    0.5666 H         1 <0>         0.0850
@<TRIPOS>BOND
     1    1    2 1
     2    1   29 1
     3    1   30 1
     4    1   31 1
     5    2    6 1
     6    2    3 2
     7    3    4 1
     8    3   28 1
     9    4    5 1
    10    5   11 1
    11    5    6 2
    12    6    7 1
    13    7    8 2
    14    7    9 am
    15    9   10 1
    16    9   12 1
    17   10   11 2
    18   10   32 1
    19   12   13 1
    20   12   33 1
    21   12   34 1
    22   13   14 2
    23   13   15 am
    24   15   16 1
    25   15   35 1
    26   16   17 1
    27   16   36 1
    28   16   37 1
    29   17   18 1
    30   17   27 1
    31   17   19 1
    32   19   20 1
    33   19   38 1
    34   19   39 1
    35   20   21 1
    36   21   26 ar
    37   21   22 ar
    38   22   23 ar
    39   22   40 1
    40   23   24 ar
    41   23   41 1
    42   24   25 ar
    43   24   42 1
    44   25   26 ar
    45   25   43 1
    46   26   27 1
    47   28   44 1
    48   28   45 1
    49   28   46 1
@<TRIPOS>MOLECULE
ZINC02780167
   37    39     0     0     0
SMALL
USER_CHARGES
4-bromo-N-(3,8-dimethyl-5-oxo-9-thia-2,4-diazabicyclo[4.3.0]nona-2,7,10-trien-4-yl)-1-ethyl-pyrazole-3-carboxamide
@<TRIPOS>ATOM
      1 C1          0.0021   -0.0041    0.0020 C.3       1 <0>        -0.1695
      2 C2         -0.0187    1.5258    0.0104 C.3       1 <0>         0.1129
      3 N1         -0.7044    1.9982    1.2158 N.pl3     1 <0>        -0.2685
      4 C3         -0.1786    2.8606    2.1208 C.2       1 <0>         0.0293
      5 C4         -1.1133    3.0486    3.0827 C.2       1 <0>        -0.1533
      6 C5         -2.2183    2.2521    2.6981 C.2       1 <0>         0.0144
      7 N2         -1.8933    1.6601    1.5661 N.2       1 <0>        -0.2414
      8 C6         -3.4968    2.1154    3.4245 C.2       1 <0>         0.6135
      9 O1         -3.6745    2.7237    4.4619 O.2       1 <0>        -0.4770
     10 N3         -4.4665    1.3162    2.9373 N.am      1 <0>        -0.5196
     11 N4         -5.6794    1.1865    3.6264 N.am      1 <0>        -0.3226
     12 C7         -5.9296    0.0487    4.3240 C.2       1 <0>         0.4171
     13 N5         -7.0461   -0.1082    4.9833 N.2       1 <0>        -0.4756
     14 C8         -7.9796    0.8388    4.9847 C.2       1 <0>         0.1015
     15 C9         -7.8132    2.0487    4.2869 C.2       1 <0>        -0.2380
     16 C10        -6.5752    2.1899    3.5790 C.2       1 <0>         0.5598
     17 O2         -6.3374    3.2027    2.9437 O.2       1 <0>        -0.5015
     18 C11        -8.9253    2.9748    4.3904 C.2       1 <0>        -0.0935
     19 C12        -9.9999    2.6298    5.1178 C.2       1 <0>        -0.1544
     20 S1         -9.5833    1.0062    5.7251 S.3       1 <0>         0.1530
     21 C13       -11.2567    3.4245    5.3623 C.3       1 <0>        -0.0698
     22 C14        -4.8985   -1.0503    4.3421 C.3       1 <0>        -0.1080
     23 Br1        -0.9719    4.1448    4.6171 Br        1 <0>         0.0211
     24 H1          0.5293   -0.3651    0.8851 H         1 <0>         0.0659
     25 H2         -1.0205   -0.3814    0.0098 H         1 <0>         0.0746
     26 H3          0.5123   -0.3556   -0.8948 H         1 <0>         0.0854
     27 H4          1.0039    1.9031    0.0027 H         1 <0>         0.1113
     28 H5         -0.5459    1.8868   -0.8726 H         1 <0>         0.1016
     29 H6          0.8017    3.3123    2.0820 H         1 <0>         0.1977
     30 H7         -4.3247    0.8308    2.1095 H         1 <0>         0.4324
     31 H8         -8.8891    3.9304    3.8886 H         1 <0>         0.1450
     32 H9        -11.9885    3.1944    4.5879 H         1 <0>         0.0831
     33 H10       -11.6667    3.1649    6.3383 H         1 <0>         0.0785
     34 H11       -11.0240    4.4891    5.3375 H         1 <0>         0.0857
     35 H12        -4.2199   -0.8979    5.1813 H         1 <0>         0.1063
     36 H13        -5.3966   -2.0140    4.4479 H         1 <0>         0.1123
     37 H14        -4.3334   -1.0337    3.4102 H         1 <0>         0.0900
@<TRIPOS>BOND
     1    1    2 1
     2    1   24 1
     3    1   25 1
     4    1   26 1
     5    2    3 1
     6    2   27 1
     7    2   28 1
     8    3    7 1
     9    3    4 1
    10    4    5 2
    11    4   29 1
    12    5    6 1
    13    5   23 1
    14    6    7 2
    15    6    8 1
    16    8    9 2
    17    8   10 am
    18   10   11 1
    19   10   30 1
    20   11   16 am
    21   11   12 1
    22   12   13 2
    23   12   22 1
    24   13   14 1
    25   14   20 1
    26   14   15 2
    27   15   16 1
    28   15   18 1
    29   16   17 2
    30   18   19 2
    31   18   31 1
    32   19   20 1
    33   19   21 1
    34   21   32 1
    35   21   33 1
    36   21   34 1
    37   22   35 1
    38   22   36 1
    39   22   37 1
@<TRIPOS>MOLECULE
ZINC08071419
   50    53     0     0     0
SMALL
USER_CHARGES
N-(3-methyl-1,1-dioxo-thiolan-3-yl)-4-(2-methyl-4-oxo-quinazolin-3-yl)-benzamide
@<TRIPOS>ATOM
      1 C1          1.0249    1.7175   -2.5023 C.3       1 <0>        -0.1136
      2 C2          0.4343    2.1756   -1.1937 C.2       1 <0>         0.4010
      3 N1         -0.6162    2.9377   -1.2250 N.2       1 <0>        -0.5134
      4 C3         -1.2018    3.3889   -0.0874 C.ar      1 <0>         0.1519
      5 C4         -2.3320    4.2082   -0.1209 C.ar      1 <0>        -0.1093
      6 C5         -2.8943    4.6429    1.0582 C.ar      1 <0>        -0.0701
      7 C6         -2.3518    4.2764    2.2829 C.ar      1 <0>        -0.1365
      8 C7         -1.2371    3.4690    2.3420 C.ar      1 <0>        -0.0397
      9 C8         -0.6556    3.0139    1.1602 C.ar      1 <0>        -0.1978
     10 C9          0.5374    2.1547    1.1617 C.2       1 <0>         0.5509
     11 O1          1.0592    1.7993    2.2023 O.2       1 <0>        -0.4942
     12 N2          1.0297    1.7698   -0.0389 N.am      1 <0>        -0.5082
     13 C10         2.1589    0.9493   -0.0933 C.ar      1 <0>         0.1356
     14 C11         3.4285    1.5169   -0.1154 C.ar      1 <0>        -0.1055
     15 C12         4.5440    0.7108   -0.1642 C.ar      1 <0>        -0.0740
     16 C13         4.3989   -0.6783   -0.2026 C.ar      1 <0>        -0.1231
     17 C14         3.1219   -1.2449   -0.1856 C.ar      1 <0>        -0.0434
     18 C15         2.0108   -0.4331   -0.1310 C.ar      1 <0>        -0.1047
     19 C16         5.5924   -1.5456   -0.2616 C.2       1 <0>         0.5640
     20 O2          5.4646   -2.7541   -0.2954 O.2       1 <0>        -0.5203
     21 N3          6.8236   -0.9974   -0.2779 N.am      1 <0>        -0.7193
     22 C17         8.0078   -1.8579   -0.3365 C.3       1 <0>         0.1835
     23 C18         7.9605   -2.8364    0.8362 C.3       1 <0>        -0.1420
     24 C19         9.4000   -3.2508    1.2508 C.3       1 <0>        -0.5611
     25 S1         10.2540   -1.6240    1.0647 S.o2      1 <0>         2.3670
     26 O3         11.5904   -1.8442    0.6348 O.2       1 <0>        -0.9311
     27 O4         10.0083   -0.8314    2.2182 O.2       1 <0>        -0.9255
     28 C20         9.2656   -0.9673   -0.3430 C.3       1 <0>        -0.5910
     29 C21         7.9667   -2.6578   -1.6400 C.3       1 <0>        -0.1707
     30 H1          0.6322    0.7321   -2.7530 H         1 <0>         0.0994
     31 H2          0.7598    2.4250   -3.2881 H         1 <0>         0.1063
     32 H3          2.1099    1.6642   -2.4125 H         1 <0>         0.0876
     33 H4         -2.7632    4.4992   -1.0674 H         1 <0>         0.1417
     34 H5         -3.7685    5.2766    1.0303 H         1 <0>         0.1370
     35 H6         -2.8078    4.6271    3.1970 H         1 <0>         0.1359
     36 H7         -0.8195    3.1872    3.2973 H         1 <0>         0.1389
     37 H8          3.5398    2.5908   -0.0906 H         1 <0>         0.1366
     38 H9          5.5297    1.1520   -0.1768 H         1 <0>         0.1368
     39 H10         3.0062   -2.3183   -0.2155 H         1 <0>         0.1494
     40 H11         1.0234   -0.8704   -0.1178 H         1 <0>         0.1375
     41 H12         6.9256   -0.0332   -0.2510 H         1 <0>         0.4043
     42 H13         7.4641   -2.3614    1.6824 H         1 <0>         0.0921
     43 H14         7.4001   -3.7240    0.5428 H         1 <0>         0.1204
     44 H15         9.8109   -3.9955    0.5692 H         1 <0>         0.1426
     45 H16         9.4320   -3.6006    2.2826 H         1 <0>         0.1458
     46 H17         9.8105   -1.0780   -1.2805 H         1 <0>         0.1545
     47 H18         8.9989    0.0763   -0.1754 H         1 <0>         0.1461
     48 H19         7.9770   -1.9724   -2.4874 H         1 <0>         0.0667
     49 H20         8.8365   -3.3128   -1.6920 H         1 <0>         0.0730
     50 H21         7.0575   -3.2583   -1.6694 H         1 <0>         0.0881
@<TRIPOS>BOND
     1    1    2 1
     2    1   30 1
     3    1   31 1
     4    1   32 1
     5    2   12 1
     6    2    3 2
     7    3    4 1
     8    4    9 ar
     9    4    5 ar
    10    5    6 ar
    11    5   33 1
    12    6    7 ar
    13    6   34 1
    14    7    8 ar
    15    7   35 1
    16    8    9 ar
    17    8   36 1
    18    9   10 1
    19   10   11 2
    20   10   12 am
    21   12   13 1
    22   13   18 ar
    23   13   14 ar
    24   14   15 ar
    25   14   37 1
    26   15   16 ar
    27   15   38 1
    28   16   17 ar
    29   16   19 1
    30   17   18 ar
    31   17   39 1
    32   18   40 1
    33   19   20 2
    34   19   21 am
    35   21   22 1
    36   21   41 1
    37   22   28 1
    38   22   23 1
    39   22   29 1
    40   23   24 1
    41   23   42 1
    42   23   43 1
    43   24   25 1
    44   24   44 1
    45   24   45 1
    46   25   26 2
    47   25   27 2
    48   25   28 1
    49   28   46 1
    50   28   47 1
    51   29   48 1
    52   29   49 1
    53   29   50 1
@<TRIPOS>MOLECULE
ZINC09581871
   55    59     0     0     0
SMALL
USER_CHARGES
4-[2-[1-(2-methyl-1H-indol-3-yl)-3-oxo-isoindolin-2-yl]acetyl]piperazine-1-carbaldehyde
@<TRIPOS>ATOM
      1 C1          8.0494    1.1965    1.2211 C.3       1 <0>        -0.1015
      2 C2          7.7162    0.9595    2.6715 C.2       1 <0>         0.1174
      3 C3          6.9941   -0.0717    3.1378 C.2       1 <0>        -0.1916
      4 C4          6.9194    0.0811    4.5927 C.ar      1 <0>        -0.0884
      5 C5          6.3247   -0.6586    5.6169 C.ar      1 <0>        -0.0753
      6 C6          6.4408   -0.2392    6.9120 C.ar      1 <0>        -0.1392
      7 C7          7.1452    0.9174    7.2181 C.ar      1 <0>        -0.0978
      8 C8          7.7394    1.6623    6.2234 C.ar      1 <0>        -0.1267
      9 C9          7.6341    1.2537    4.8977 C.ar      1 <0>         0.0979
     10 N1          8.1025    1.7648    3.7081 N.pl3     1 <0>        -0.5890
     11 H1          8.6309    2.5733    3.6186 H         1 <0>         0.4167
     12 C10         6.3820   -1.1798    2.3201 C.3       1 <0>         0.2554
     13 H2          5.6683   -1.7408    2.9234 H         1 <0>         0.1074
     14 C11         7.4581   -2.1021    1.8041 C.ar      1 <0>        -0.0637
     15 C12         8.3955   -2.8961    2.4233 C.ar      1 <0>        -0.0944
     16 C13         9.2778   -3.6453    1.6633 C.ar      1 <0>        -0.0852
     17 C14         9.2191   -3.5986    0.2815 C.ar      1 <0>        -0.1257
     18 C15         8.2828   -2.8062   -0.3494 C.ar      1 <0>        -0.0461
     19 C16         7.3900   -2.0475    0.4101 C.ar      1 <0>        -0.1588
     20 C17         6.3016   -1.1245    0.0357 C.2       1 <0>         0.5694
     21 O1          5.9806   -0.8554   -1.1053 O.2       1 <0>        -0.5197
     22 N2          5.7152   -0.6242    1.1370 N.am      1 <0>        -0.5913
     23 C18         4.5987    0.3242    1.1533 C.3       1 <0>         0.1224
     24 C19         3.2961   -0.4336    1.1616 C.2       1 <0>         0.4997
     25 O2          3.3000   -1.6463    1.1547 O.2       1 <0>        -0.5190
     26 N3          2.1268    0.2365    1.1769 N.am      1 <0>        -0.6145
     27 C20         0.8489   -0.4892    1.1852 C.3       1 <0>         0.1003
     28 C21         0.0021   -0.0041    0.0020 C.3       1 <0>         0.0929
     29 N4         -0.0179    1.4654    0.0101 N.am      1 <0>        -0.6231
     30 C22         1.2601    2.1912    0.0018 C.3       1 <0>         0.0958
     31 C23         2.1069    1.7060    1.1849 C.3       1 <0>         0.0901
     32 C24        -1.1872    2.1355    0.0193 C.2       1 <0>         0.4953
     33 O3         -2.2356    1.5257    0.0210 O.2       1 <0>        -0.5481
     34 H3          7.2704    1.8071    0.7644 H         1 <0>         0.0790
     35 H4          9.0061    1.7138    1.1479 H         1 <0>         0.0723
     36 H5          8.1127    0.2403    0.7018 H         1 <0>         0.0844
     37 H6          5.7750   -1.5592    5.3861 H         1 <0>         0.1213
     38 H7          5.9806   -0.8115    7.7038 H         1 <0>         0.1237
     39 H8          7.2283    1.2361    8.2467 H         1 <0>         0.1262
     40 H9          8.2848    2.5607    6.4717 H         1 <0>         0.1206
     41 H10         8.4432   -2.9351    3.5016 H         1 <0>         0.1307
     42 H11        10.0136   -4.2680    2.1502 H         1 <0>         0.1337
     43 H12         9.9100   -4.1853   -0.3059 H         1 <0>         0.1339
     44 H13         8.2401   -2.7729   -1.4281 H         1 <0>         0.1328
     45 H14         4.6458    0.9561    0.2664 H         1 <0>         0.1154
     46 H15         4.6631    0.9459    2.0462 H         1 <0>         0.1140
     47 H16         0.3215   -0.2907    2.1182 H         1 <0>         0.0744
     48 H17         1.0324   -1.5594    1.0892 H         1 <0>         0.1055
     49 H18        -1.0148   -0.3843    0.0997 H         1 <0>         0.1060
     50 H19         0.4371   -0.3589   -0.9323 H         1 <0>         0.0733
     51 H20         1.7874    1.9927   -0.9313 H         1 <0>         0.0789
     52 H21         1.0740    3.2607    0.0993 H         1 <0>         0.1011
     53 H22         1.6691    2.0608    2.1180 H         1 <0>         0.0812
     54 H23         3.1240    2.0862    1.0903 H         1 <0>         0.0965
     55 H24        -1.1906    3.2155    0.0252 H         1 <0>         0.1335
@<TRIPOS>BOND
     1    1    2 1
     2    1   34 1
     3    1   35 1
     4    1   36 1
     5    2   10 1
     6    2    3 2
     7    3    4 1
     8    3   12 1
     9    4    9 ar
    10    4    5 ar
    11    5    6 ar
    12    5   37 1
    13    6    7 ar
    14    6   38 1
    15    7    8 ar
    16    7   39 1
    17    8    9 ar
    18    8   40 1
    19    9   10 1
    20   10   11 1
    21   12   13 1
    22   12   22 1
    23   12   14 1
    24   14   19 ar
    25   14   15 ar
    26   15   16 ar
    27   15   41 1
    28   16   17 ar
    29   16   42 1
    30   17   18 ar
    31   17   43 1
    32   18   19 ar
    33   18   44 1
    34   19   20 1
    35   20   21 2
    36   20   22 am
    37   22   23 1
    38   23   24 1
    39   23   45 1
    40   23   46 1
    41   24   25 2
    42   24   26 am
    43   26   31 1
    44   26   27 1
    45   27   28 1
    46   27   47 1
    47   27   48 1
    48   28   29 1
    49   28   49 1
    50   28   50 1
    51   29   30 1
    52   29   32 am
    53   30   31 1
    54   30   51 1
    55   30   52 1
    56   31   53 1
    57   31   54 1
    58   32   33 2
    59   32   55 1
@<TRIPOS>MOLECULE
ZINC12325143
   48    51     0     0     0
SMALL
USER_CHARGES
4-(2,5-dioxopyrrolidin-1-yl)-N-(8-methoxy-2-methyl-4-quinolyl)benzamide
@<TRIPOS>ATOM
      1 C1         -2.2665   -2.4716   -1.2935 C.3       1 <0>        -0.1056
      2 C2         -1.0502   -1.8900   -0.6202 C.ar      1 <0>         0.1654
      3 C3          0.1365   -2.6128   -0.6279 C.ar      1 <0>        -0.1637
      4 C4          1.2617   -2.0899   -0.0134 C.ar      1 <0>         0.1910
      5 C5          1.1499   -0.8220    0.6047 C.ar      1 <0>        -0.0844
      6 C6          2.2438   -0.2251    1.2481 C.ar      1 <0>        -0.1425
      7 C7          2.0994    0.9969    1.8332 C.ar      1 <0>        -0.0699
      8 C8          0.8787    1.6650    1.8003 C.ar      1 <0>        -0.2122
      9 C9         -0.2081    1.1137    1.1835 C.ar      1 <0>         0.1633
     10 C10        -0.0946   -0.1504    0.5683 C.ar      1 <0>         0.1320
     11 N1         -1.1411   -0.7150   -0.0435 N.ar      1 <0>        -0.4627
     12 O1         -1.3908    1.7819    1.1578 O.3       1 <0>        -0.2917
     13 C11        -1.4296    3.0569    1.8019 C.3       1 <0>         0.0217
     14 N2          2.4637   -2.7890   -0.0037 N.am      1 <0>        -0.6598
     15 C12         2.4598   -4.1353    0.0583 C.2       1 <0>         0.5642
     16 O2          1.4063   -4.7418    0.0355 O.2       1 <0>        -0.5029
     17 C13         3.7344   -4.8734    0.1539 C.ar      1 <0>        -0.1315
     18 C14         4.9465   -4.1783    0.1745 C.ar      1 <0>        -0.0709
     19 C15         6.1334   -4.8701    0.2681 C.ar      1 <0>        -0.1075
     20 C16         6.1274   -6.2592    0.3325 C.ar      1 <0>         0.1414
     21 C17         4.9234   -6.9546    0.3070 C.ar      1 <0>        -0.1075
     22 C18         3.7323   -6.2693    0.2183 C.ar      1 <0>        -0.0387
     23 N3          7.3347   -6.9583    0.4226 N.am      1 <0>        -0.5341
     24 C19         7.6066   -7.8089    1.4200 C.2       1 <0>         0.5245
     25 O3          6.8638   -8.0710    2.3414 O.2       1 <0>        -0.4636
     26 C20         8.9868   -8.3936    1.2132 C.3       1 <0>        -0.1539
     27 C21         9.4744   -7.7189   -0.0852 C.3       1 <0>        -0.1538
     28 C22         8.3162   -6.8281   -0.4785 C.2       1 <0>         0.5250
     29 O4          8.2826   -6.1101   -1.4546 O.2       1 <0>        -0.4650
     30 H1         -2.2888   -2.1582   -2.3372 H         1 <0>         0.0820
     31 H2         -2.2252   -3.5596   -1.2416 H         1 <0>         0.0792
     32 H3         -3.1654   -2.1177   -0.7886 H         1 <0>         0.0812
     33 H4          0.1808   -3.5779   -1.1105 H         1 <0>         0.1561
     34 H5          3.1968   -0.7322    1.2800 H         1 <0>         0.1243
     35 H6          2.9438    1.4538    2.3279 H         1 <0>         0.1313
     36 H7          0.7893    2.6331    2.2706 H         1 <0>         0.1365
     37 H8         -2.4292    3.4812    1.7079 H         1 <0>         0.1046
     38 H9         -1.1829    2.9386    2.8570 H         1 <0>         0.0578
     39 H10        -0.7063    3.7235    1.3322 H         1 <0>         0.0579
     40 H11         3.3051   -2.3077   -0.0415 H         1 <0>         0.4140
     41 H12         4.9521   -3.0996    0.1204 H         1 <0>         0.1352
     42 H13         7.0704   -4.3333    0.2879 H         1 <0>         0.1372
     43 H14         4.9225   -8.0334    0.3571 H         1 <0>         0.1384
     44 H15         2.7976   -6.8100    0.1989 H         1 <0>         0.1498
     45 H16         8.9340   -9.4750    1.0871 H         1 <0>         0.1274
     46 H17         9.6399   -8.1373    2.0474 H         1 <0>         0.1266
     47 H18         9.6642   -8.4647   -0.8571 H         1 <0>         0.1270
     48 H19        10.3685   -7.1247    0.1037 H         1 <0>         0.1270
@<TRIPOS>BOND
     1    1    2 1
     2    1   30 1
     3    1   31 1
     4    1   32 1
     5    2   11 ar
     6    2    3 ar
     7    3    4 ar
     8    3   33 1
     9    4    5 ar
    10    4   14 1
    11    5   10 ar
    12    5    6 ar
    13    6    7 ar
    14    6   34 1
    15    7    8 ar
    16    7   35 1
    17    8    9 ar
    18    8   36 1
    19    9   10 ar
    20    9   12 1
    21   10   11 ar
    22   12   13 1
    23   13   37 1
    24   13   38 1
    25   13   39 1
    26   14   15 am
    27   14   40 1
    28   15   16 2
    29   15   17 1
    30   17   22 ar
    31   17   18 ar
    32   18   19 ar
    33   18   41 1
    34   19   20 ar
    35   19   42 1
    36   20   21 ar
    37   20   23 1
    38   21   22 ar
    39   21   43 1
    40   22   44 1
    41   23   28 am
    42   23   24 am
    43   24   25 2
    44   24   26 1
    45   26   27 1
    46   26   45 1
    47   26   46 1
    48   27   28 1
    49   27   47 1
    50   27   48 1
    51   28   29 2
@<TRIPOS>MOLECULE
ZINC12569000
   46    50     0     0     0
SMALL
USER_CHARGES
(3R)-1-(2,3-dihydro-1,4-benzodioxin-6-yl)-N-(5,6-dihydro-4H-cyclopenta[d]thiazol-2-yl)-5-oxo-pyrrolidine-3-carboxamide
@<TRIPOS>ATOM
      1 C1         -1.8160    4.8194   -2.3381 C.ar      1 <0>        -0.1497
      2 C2         -1.4424    3.4892   -2.3261 C.ar      1 <0>        -0.0836
      3 C3         -1.0790    2.8783   -1.1355 C.ar      1 <0>         0.0277
      4 C4         -1.0881    3.6064    0.0489 C.ar      1 <0>         0.0810
      5 C5         -1.4641    4.9404    0.0367 C.ar      1 <0>        -0.1515
      6 C6         -1.8282    5.5483   -1.1569 C.ar      1 <0>         0.1688
      7 N1         -2.2083    6.8967   -1.1693 N.am      1 <0>        -0.5551
      8 C7         -2.4890    7.6668   -2.3867 C.3       1 <0>         0.1126
      9 C8         -3.2721    8.9132   -1.9123 C.3       1 <0>        -0.1177
     10 H1         -4.3478    8.7411   -1.9493 H         1 <0>         0.1344
     11 C9         -2.7839    9.0526   -0.4517 C.3       1 <0>        -0.1474
     12 C10        -2.3573    7.6528   -0.0680 C.2       1 <0>         0.5199
     13 O1         -2.1764    7.2686    1.0682 O.2       1 <0>        -0.4978
     14 C11        -2.8943   10.1247   -2.7251 C.2       1 <0>         0.5229
     15 O2         -2.1619   10.0068   -3.6846 O.2       1 <0>        -0.4577
     16 N2         -3.3704   11.3390   -2.3858 N.am      1 <0>        -0.6168
     17 C12        -3.0219   12.4564   -3.1356 C.2       1 <0>         0.3039
     18 N3         -2.2463   12.5329   -4.1921 N.2       1 <0>        -0.5077
     19 C13        -2.0026   13.6925   -4.8196 C.2       1 <0>         0.0654
     20 C14        -2.5979   14.7875   -4.2912 C.2       1 <0>        -0.2319
     21 S1         -3.4941   14.1124   -2.9119 S.3       1 <0>         0.0986
     22 C15        -2.2694   16.0357   -5.0519 C.3       1 <0>        -0.0277
     23 C16        -1.7204   15.5331   -6.4064 C.3       1 <0>        -0.1137
     24 C17        -1.1838   14.1371   -6.0318 C.3       1 <0>        -0.0436
     25 O3         -0.7268    3.0262    1.2260 O.3       1 <0>        -0.3033
     26 C18        -0.7135    1.5950    1.2617 C.3       1 <0>         0.0200
     27 C19         0.0012    1.0897    0.0010 C.3       1 <0>         0.0202
     28 O4         -0.7164    1.5654   -1.1429 O.3       1 <0>        -0.3067
     29 H2         -2.0983    5.2924   -3.2670 H         1 <0>         0.1376
     30 H3         -1.4338    2.9238   -3.2463 H         1 <0>         0.1417
     31 H4         -1.4739    5.5070    0.9561 H         1 <0>         0.1671
     32 H5         -1.5573    7.9640   -2.8681 H         1 <0>         0.1038
     33 H6         -3.0982    7.0786   -3.0730 H         1 <0>         0.1006
     34 H7         -3.5956    9.3937    0.1909 H         1 <0>         0.1226
     35 H8         -1.9387    9.7384   -0.3937 H         1 <0>         0.1171
     36 H9         -3.9561   11.4333   -1.6184 H         1 <0>         0.4293
     37 H10        -3.1669   16.6352   -5.2044 H         1 <0>         0.0820
     38 H11        -1.5102   16.6135   -4.5248 H         1 <0>         0.0883
     39 H12        -2.5171   15.4589   -7.1466 H         1 <0>         0.0803
     40 H13        -0.9166   16.1766   -6.7641 H         1 <0>         0.0906
     41 H14        -1.3293   13.4431   -6.8596 H         1 <0>         0.0827
     42 H15        -0.1268   14.1970   -5.7725 H         1 <0>         0.0876
     43 H16        -1.7363    1.2188    1.2802 H         1 <0>         0.0792
     44 H17        -0.1796    1.2537    2.1486 H         1 <0>         0.1243
     45 H18         0.0158   -0.0002   -0.0014 H         1 <0>         0.1236
     46 H19         1.0221    1.4710   -0.0206 H         1 <0>         0.0781
@<TRIPOS>BOND
     1    1    6 ar
     2    1    2 ar
     3    1   29 1
     4    2    3 ar
     5    2   30 1
     6    3   28 1
     7    3    4 ar
     8    4    5 ar
     9    4   25 1
    10    5    6 ar
    11    5   31 1
    12    6    7 1
    13    7   12 am
    14    7    8 1
    15    8    9 1
    16    8   32 1
    17    8   33 1
    18    9   10 1
    19    9   11 1
    20    9   14 1
    21   11   12 1
    22   11   34 1
    23   11   35 1
    24   12   13 2
    25   14   15 2
    26   14   16 am
    27   16   17 1
    28   16   36 1
    29   17   21 1
    30   17   18 2
    31   18   19 1
    32   19   24 1
    33   19   20 2
    34   20   21 1
    35   20   22 1
    36   22   23 1
    37   22   37 1
    38   22   38 1
    39   23   24 1
    40   23   39 1
    41   23   40 1
    42   24   41 1
    43   24   42 1
    44   25   26 1
    45   26   27 1
    46   26   43 1
    47   26   44 1
    48   27   28 1
    49   27   45 1
    50   27   46 1
@<TRIPOS>MOLECULE
ZINC04260305
   62    66     0     0     0
SMALL
USER_CHARGES
[(1-acetyl-4-piperidyl)amino]-benzoyl-BLAHone
@<TRIPOS>ATOM
      1 C1          4.5603   -8.3243    6.8698 C.3       1 <0>        -0.1771
      2 C2          4.7756   -6.8363    6.7676 C.2       1 <0>         0.5134
      3 O1          5.8431   -6.3549    7.0834 O.2       1 <0>        -0.5439
      4 N1          3.7819   -6.0404    6.3255 N.am      1 <0>        -0.6171
      5 C3          2.5235   -6.6173    5.8333 C.3       1 <0>         0.1097
      6 C4          2.2432   -6.0660    4.4318 C.3       1 <0>        -0.1432
      7 C5          2.2579   -4.5363    4.4773 C.3       1 <0>         0.1593
      8 C6          3.6402   -4.0510    4.9198 C.3       1 <0>        -0.1501
      9 C7          3.9362   -4.5792    6.3270 C.3       1 <0>         0.1124
     10 N2          1.9575   -4.0054    3.1454 N.pl3     1 <0>        -0.7240
     11 C8          1.4043   -2.7260    3.0099 C.2       1 <0>         0.0982
     12 C9          1.1405   -1.9635    4.1145 C.2       1 <0>        -0.1371
     13 C10         0.6129   -0.6790    3.9381 C.2       1 <0>        -0.1709
     14 C11         0.3541   -0.2016    2.6930 C.2       1 <0>         0.1112
     15 N3          0.5319   -0.9867    1.6019 N.am      1 <0>        -0.4675
     16 C12         1.1118   -2.2053    1.7343 C.2       1 <0>         0.5062
     17 O2          1.3823   -2.8575    0.7385 O.2       1 <0>        -0.5549
     18 C13         0.1104   -0.5945    0.2571 C.3       1 <0>         0.1050
     19 C14        -0.0692    0.9065    0.1207 C.3       1 <0>        -0.1175
     20 H1         -0.6391    1.0980   -0.7885 H         1 <0>         0.1056
     21 C15        -0.8872    1.4408    1.2969 C.3       1 <0>        -0.1153
     22 C16        -0.0764    1.2426    2.5800 C.3       1 <0>        -0.0600
     23 H2         -0.6607    1.5292    3.4543 H         1 <0>         0.1142
     24 C17         1.1948    2.1040    2.4873 C.3       1 <0>         0.1172
     25 N4          1.9458    1.6517    1.3052 N.am      1 <0>        -0.6072
     26 C18         1.2635    1.6334    0.0058 C.3       1 <0>         0.0956
     27 C19         3.2316    1.2626    1.4134 C.2       1 <0>         0.5649
     28 O3          3.7541    1.1887    2.5085 O.2       1 <0>        -0.5257
     29 C20         4.0066    0.9256    0.2003 C.ar      1 <0>        -0.1339
     30 C21         4.9975   -0.0560    0.2518 C.ar      1 <0>        -0.0596
     31 C22         5.7141   -0.3687   -0.8848 C.ar      1 <0>        -0.1229
     32 C23         5.4592    0.2954   -2.0715 C.ar      1 <0>        -0.0937
     33 C24         4.4817    1.2729   -2.1282 C.ar      1 <0>        -0.1271
     34 C25         3.7546    1.5918   -1.0000 C.ar      1 <0>        -0.0985
     35 H3          4.9151   -8.8061    5.9587 H         1 <0>         0.0945
     36 H4          5.1124   -8.7135    7.7252 H         1 <0>         0.0948
     37 H5          3.4976   -8.5296    6.9992 H         1 <0>         0.0824
     38 H6          1.7089   -6.3430    6.5035 H         1 <0>         0.0748
     39 H7          2.6122   -7.7028    5.7879 H         1 <0>         0.0953
     40 H8          1.2658   -6.4105    4.0940 H         1 <0>         0.0853
     41 H9          3.0109   -6.4168    3.7420 H         1 <0>         0.0746
     42 H10         1.5065   -4.1869    5.1855 H         1 <0>         0.0813
     43 H11         4.3950   -4.4210    4.2259 H         1 <0>         0.0705
     44 H12         3.6573   -2.9612    4.9294 H         1 <0>         0.0812
     45 H13         3.2368   -4.1387    7.0375 H         1 <0>         0.0697
     46 H14         4.9564   -4.3198    6.6098 H         1 <0>         0.0962
     47 H15         2.1417   -4.5401    2.3573 H         1 <0>         0.4048
     48 H16         1.3362   -2.3457    5.1054 H         1 <0>         0.1292
     49 H17         0.4092   -0.0615    4.8005 H         1 <0>         0.1382
     50 H18        -0.8351   -1.0854    0.0264 H         1 <0>         0.0827
     51 H19         0.8620   -0.9265   -0.4591 H         1 <0>         0.0953
     52 H20        -1.0887    2.5020    1.1509 H         1 <0>         0.0843
     53 H21        -1.8266    0.8927    1.3688 H         1 <0>         0.0783
     54 H22         0.9238    3.1538    2.3751 H         1 <0>         0.0823
     55 H23         1.7995    1.9701    3.3842 H         1 <0>         0.1025
     56 H24         1.8914    1.1229   -0.7244 H         1 <0>         0.1041
     57 H25         1.0889    2.6573   -0.3247 H         1 <0>         0.0799
     58 H26         5.2004   -0.5721    1.1786 H         1 <0>         0.1289
     59 H27         6.4785   -1.1307   -0.8472 H         1 <0>         0.1300
     60 H28         6.0256    0.0495   -2.9576 H         1 <0>         0.1284
     61 H29         4.2876    1.7876   -3.0576 H         1 <0>         0.1303
     62 H30         2.9918    2.3550   -1.0456 H         1 <0>         0.1345
@<TRIPOS>BOND
     1    1    2 1
     2    1   35 1
     3    1   36 1
     4    1   37 1
     5    2    3 2
     6    2    4 am
     7    4    9 1
     8    4    5 1
     9    5    6 1
    10    5   38 1
    11    5   39 1
    12    6    7 1
    13    6   40 1
    14    6   41 1
    15    7    8 1
    16    7   10 1
    17    7   42 1
    18    8    9 1
    19    8   43 1
    20    8   44 1
    21    9   45 1
    22    9   46 1
    23   10   11 1
    24   10   47 1
    25   11   16 1
    26   11   12 2
    27   12   13 1
    28   12   48 1
    29   13   14 2
    30   13   49 1
    31   14   22 1
    32   14   15 1
    33   15   16 am
    34   15   18 1
    35   16   17 2
    36   18   19 1
    37   18   50 1
    38   18   51 1
    39   19   20 1
    40   19   26 1
    41   19   21 1
    42   21   22 1
    43   21   52 1
    44   21   53 1
    45   22   23 1
    46   22   24 1
    47   24   25 1
    48   24   54 1
    49   24   55 1
    50   25   26 1
    51   25   27 am
    52   26   56 1
    53   26   57 1
    54   27   28 2
    55   27   29 1
    56   29   34 ar
    57   29   30 ar
    58   30   31 ar
    59   30   58 1
    60   31   32 ar
    61   31   59 1
    62   32   33 ar
    63   32   60 1
    64   33   34 ar
    65   33   61 1
    66   34   62 1
@<TRIPOS>MOLECULE
ZINC12661337
   54    58     0     0     0
SMALL
USER_CHARGES
3-imidazol-1-ylpropyl-dimethyl-BLAHdione
@<TRIPOS>ATOM
      1 C1          2.0219    5.6669    0.0210 C.3       1 <0>        -0.1246
      2 C2          2.3444    4.2000   -0.2709 C.3       1 <0>         0.2356
      3 C3          3.4358    3.7189    0.6584 C.2       1 <0>         0.0656
      4 C4          3.3629    2.5679    1.3613 C.2       1 <0>        -0.1595
      5 C5          4.5925    2.4563    2.1196 C.ar      1 <0>        -0.0985
      6 C6          5.0729    1.4903    3.0089 C.ar      1 <0>        -0.0662
      7 C7          6.3109    1.7146    3.5589 C.ar      1 <0>        -0.1469
      8 C8          7.0584    2.8407    3.2552 C.ar      1 <0>        -0.0963
      9 C9          6.6076    3.8118    2.3779 C.ar      1 <0>        -0.1302
     10 C10         5.3542    3.6105    1.8035 C.ar      1 <0>         0.1034
     11 N1          4.6236    4.3491    0.9180 N.pl3     1 <0>        -0.5745
     12 H1          4.9037    5.1932    0.5307 H         1 <0>         0.4169
     13 C11         2.1959    1.6144    1.3282 C.3       1 <0>        -0.0410
     14 C12         1.3419    1.9182    0.0893 C.3       1 <0>         0.1325
     15 H2          1.8750    1.5762   -0.7978 H         1 <0>         0.1206
     16 N2          1.1516    3.3651   -0.0023 N.am      1 <0>        -0.5889
     17 C13        -0.0394    3.9542    0.1213 C.2       1 <0>         0.5145
     18 O1         -0.0760    5.1663    0.0965 O.2       1 <0>        -0.5199
     19 C14        -1.3308    3.2216    0.2885 C.3       1 <0>         0.1005
     20 N3         -1.1475    1.7799    0.2546 N.am      1 <0>        -0.6013
     21 C15         0.0421    1.1862    0.1837 C.2       1 <0>         0.5216
     22 O2          0.0727   -0.0262    0.1913 O.2       1 <0>        -0.5209
     23 C16        -2.3382    0.9309    0.3424 C.3       1 <0>         0.1104
     24 C17        -2.6586    0.6522    1.8123 C.3       1 <0>        -0.1526
     25 C18        -3.9021   -0.2345    1.9039 C.3       1 <0>         0.1087
     26 N4         -4.2089   -0.5014    3.3114 N.pl3     1 <0>        -0.4601
     27 C19        -3.7454   -1.5502    4.0589 C.2       1 <0>        -0.0546
     28 C20        -4.2678   -1.4105    5.2923 C.2       1 <0>        -0.0296
     29 N5         -5.0368   -0.3116    5.2951 N.2       1 <0>        -0.4950
     30 C21        -5.0063    0.2381    4.1119 C.2       1 <0>         0.1797
     31 C22         2.7934    4.0443   -1.7252 C.3       1 <0>        -0.1559
     32 H3          2.9434    6.2491    0.0180 H         1 <0>         0.0397
     33 H4          1.3476    6.0500   -0.7449 H         1 <0>         0.0904
     34 H5          1.5449    5.7466    0.9979 H         1 <0>         0.0746
     35 H6          4.4973    0.6094    3.2520 H         1 <0>         0.1297
     36 H7          6.7149    0.9896    4.2500 H         1 <0>         0.1199
     37 H8          8.0257    2.9654    3.7192 H         1 <0>         0.1227
     38 H9          7.2003    4.6851    2.1489 H         1 <0>         0.1289
     39 H10         1.5935    1.7433    2.2275 H         1 <0>         0.0785
     40 H11         2.5631    0.5895    1.2763 H         1 <0>         0.0993
     41 H12        -1.7824    3.5117    1.2372 H         1 <0>         0.1116
     42 H13        -2.0033    3.4993   -0.5231 H         1 <0>         0.1159
     43 H14        -3.1823    1.4396   -0.1233 H         1 <0>         0.0890
     44 H15        -2.1518   -0.0108   -0.1738 H         1 <0>         0.0995
     45 H16        -1.8145    0.1435    2.2779 H         1 <0>         0.0789
     46 H17        -2.8450    1.5939    2.3284 H         1 <0>         0.0740
     47 H18        -4.7462    0.2742    1.4383 H         1 <0>         0.0972
     48 H19        -3.7157   -1.1762    1.3878 H         1 <0>         0.0965
     49 H20        -3.0856   -2.3372    3.7246 H         1 <0>         0.1738
     50 H21        -4.1001   -2.0699    6.1310 H         1 <0>         0.1694
     51 H22        -5.5313    1.1360    3.8213 H         1 <0>         0.2031
     52 H23         3.0034    2.9945   -1.9302 H         1 <0>         0.0659
     53 H24         2.0022    4.3928   -2.3890 H         1 <0>         0.0730
     54 H25         3.6943    4.6345   -1.8925 H         1 <0>         0.0749
@<TRIPOS>BOND
     1    1    2 1
     2    1   32 1
     3    1   33 1
     4    1   34 1
     5    2   16 1
     6    2    3 1
     7    2   31 1
     8    3   11 1
     9    3    4 2
    10    4    5 1
    11    4   13 1
    12    5   10 ar
    13    5    6 ar
    14    6    7 ar
    15    6   35 1
    16    7    8 ar
    17    7   36 1
    18    8    9 ar
    19    8   37 1
    20    9   10 ar
    21    9   38 1
    22   10   11 1
    23   11   12 1
    24   13   14 1
    25   13   39 1
    26   13   40 1
    27   14   15 1
    28   14   21 1
    29   14   16 1
    30   16   17 am
    31   17   18 2
    32   17   19 1
    33   19   20 1
    34   19   41 1
    35   19   42 1
    36   20   21 am
    37   20   23 1
    38   21   22 2
    39   23   24 1
    40   23   43 1
    41   23   44 1
    42   24   25 1
    43   24   45 1
    44   24   46 1
    45   25   26 1
    46   25   47 1
    47   25   48 1
    48   26   30 1
    49   26   27 1
    50   27   28 2
    51   27   49 1
    52   28   29 1
    53   28   50 1
    54   29   30 2
    55   30   51 1
    56   31   52 1
    57   31   53 1
    58   31   54 1
@<TRIPOS>MOLECULE
ZINC12640117
   44    48     0     0     0
SMALL
USER_CHARGES
dimethyl-(4-pyridyl)BLAHtrione
@<TRIPOS>ATOM
      1 C1         -0.0127    1.0858    0.0080 C.3       1 <0>         0.0665
      2 N1         -0.6984    1.5583    1.2133 N.am      1 <0>        -0.5458
      3 C2          0.0241    1.7893    2.3633 C.2       1 <0>         0.4486
      4 C3         -0.6204    2.2239    3.4801 C.2       1 <0>        -0.2970
      5 C4         -2.0137    2.4325    3.4251 C.2       1 <0>         0.5650
      6 O1         -2.6124    2.8256    4.4114 O.2       1 <0>        -0.4972
      7 N2         -2.6807    2.1966    2.2798 N.am      1 <0>        -0.5573
      8 C5         -2.0260    1.7677    1.1854 C.2       1 <0>         0.7078
      9 O2         -2.6442    1.5622    0.1588 O.2       1 <0>        -0.5260
     10 C6         -4.1283    2.4145    2.2229 C.3       1 <0>         0.0802
     11 C7          0.0985    2.4914    4.7779 C.3       1 <0>         0.1180
     12 H1         -0.2254    3.4507    5.1816 H         1 <0>         0.1065
     13 C8          1.5842    2.5264    4.5309 C.2       1 <0>        -0.2616
     14 C9          2.1507    2.0789    3.3645 C.2       1 <0>         0.2405
     15 N3          1.3854    1.5744    2.3373 N.pl3     1 <0>        -0.6211
     16 C10         3.6058    2.2454    3.4456 C.ar      1 <0>        -0.0624
     17 C11         4.6227    1.9509    2.5509 C.ar      1 <0>        -0.0784
     18 C12         5.9276    2.2441    2.9560 C.ar      1 <0>        -0.0972
     19 C13         6.2013    2.7997    4.1836 C.ar      1 <0>        -0.1072
     20 C14         5.1869    3.1024    5.0980 C.ar      1 <0>        -0.0387
     21 C15         3.8916    2.8172    4.7111 C.ar      1 <0>        -0.1542
     22 C16         2.5948    2.9957    5.4000 C.2       1 <0>         0.4478
     23 O3          2.4287    3.4612    6.5110 O.2       1 <0>        -0.4119
     24 C17        -0.2213    1.3977    5.7641 C.ar      1 <0>        -0.0261
     25 C18         0.0877    0.0757    5.4826 C.ar      1 <0>        -0.1631
     26 C19        -0.2168   -0.8999    6.4130 C.ar      1 <0>         0.0943
     27 N4         -0.8024   -0.5863    7.5521 N.ar      1 <0>        -0.4852
     28 C20        -1.1148    0.6595    7.8513 C.ar      1 <0>         0.0991
     29 C21        -0.8366    1.6887    6.9720 C.ar      1 <0>        -0.1419
     30 H2          0.0021   -0.0041    0.0020 H         1 <0>         0.0856
     31 H3          1.0099    1.4631    0.0003 H         1 <0>         0.0844
     32 H4         -0.5399    1.4469   -0.8751 H         1 <0>         0.1102
     33 H5         -4.3294    3.4410    1.9166 H         1 <0>         0.0763
     34 H6         -4.5711    1.7269    1.5024 H         1 <0>         0.0925
     35 H7         -4.5613    2.2376    3.2075 H         1 <0>         0.0967
     36 H8          1.7951    1.0784    1.6113 H         1 <0>         0.4258
     37 H9          4.4159    1.5147    1.5848 H         1 <0>         0.1396
     38 H10         6.7456    2.0282    2.2846 H         1 <0>         0.1358
     39 H11         7.2272    3.0078    4.4492 H         1 <0>         0.1369
     40 H12         5.4060    3.5383    6.0615 H         1 <0>         0.1485
     41 H13         0.5632   -0.1880    4.5494 H         1 <0>         0.1198
     42 H14         0.0236   -1.9316    6.2027 H         1 <0>         0.1519
     43 H15        -1.5940    0.8778    8.7942 H         1 <0>         0.1567
     44 H16        -1.0949    2.7070    7.2227 H         1 <0>         0.1376
@<TRIPOS>BOND
     1    1    2 1
     2    1   30 1
     3    1   31 1
     4    1   32 1
     5    2    8 am
     6    2    3 1
     7    3   15 1
     8    3    4 2
     9    4    5 1
    10    4   11 1
    11    5    6 2
    12    5    7 am
    13    7    8 am
    14    7   10 1
    15    8    9 2
    16   10   33 1
    17   10   34 1
    18   10   35 1
    19   11   12 1
    20   11   13 1
    21   11   24 1
    22   13   22 1
    23   13   14 2
    24   14   15 1
    25   14   16 1
    26   15   36 1
    27   16   21 ar
    28   16   17 ar
    29   17   18 ar
    30   17   37 1
    31   18   19 ar
    32   18   38 1
    33   19   20 ar
    34   19   39 1
    35   20   21 ar
    36   20   40 1
    37   21   22 1
    38   22   23 2
    39   24   29 ar
    40   24   25 ar
    41   25   26 ar
    42   25   41 1
    43   26   27 ar
    44   26   42 1
    45   27   28 ar
    46   28   29 ar
    47   28   43 1
    48   29   44 1
@<TRIPOS>MOLECULE
ZINC01093829
   47    50     0     0     0
SMALL
USER_CHARGES
(5E)-5-[[2,5-dimethyl-1-(3-pyridyl)pyrrol-3-yl]methylene]-1-(4-fluorophenyl)hexahydropyrimidine-2,4,6-trione
@<TRIPOS>ATOM
      1 C1          9.4799   -1.9151   -0.6556 C.3       1 <0>        -0.0842
      2 C2          8.8204   -0.5663   -0.5252 C.2       1 <0>         0.0065
      3 C3          7.4973   -0.3525   -0.4457 C.2       1 <0>        -0.0859
      4 C4          7.3175    1.1028   -0.3335 C.2       1 <0>        -0.2155
      5 C5          8.5946    1.6444   -0.3478 C.2       1 <0>         0.1127
      6 N1          9.4757    0.6330   -0.4626 N.pl3     1 <0>        -0.3857
      7 C6         10.8678    0.7869   -0.5117 C.ar      1 <0>         0.0548
      8 C7         11.6710    0.2800    0.5068 C.ar      1 <0>        -0.0609
      9 C8         13.0416    0.4571    0.4138 C.ar      1 <0>        -0.1573
     10 C9         13.5635    1.1259   -0.6781 C.ar      1 <0>         0.1109
     11 N2         12.7753    1.5936   -1.6261 N.ar      1 <0>        -0.4678
     12 C10        11.4667    1.4420   -1.5790 C.ar      1 <0>         0.1168
     13 C11         8.9361    3.1091   -0.2515 C.3       1 <0>        -0.1025
     14 C12         6.0938    1.8057   -0.2268 C.2       1 <0>         0.1846
     15 C13         5.0273    1.4676   -1.0438 C.2       1 <0>        -0.3082
     16 C14         5.1846    0.5190   -2.1618 C.2       1 <0>         0.5636
     17 O1          6.2615    0.0046   -2.3980 O.2       1 <0>        -0.4638
     18 N3          4.1020    0.2373   -2.9157 N.am      1 <0>        -0.6632
     19 C15         2.9086    0.7929   -2.6633 C.2       1 <0>         0.7119
     20 O2          1.9719    0.4931   -3.3774 O.2       1 <0>        -0.5180
     21 N4          2.6945    1.6661   -1.6692 N.am      1 <0>        -0.5164
     22 C16         3.6853    2.0409   -0.8341 C.2       1 <0>         0.5698
     23 O3          3.4771    2.8304    0.0680 O.2       1 <0>        -0.4769
     24 C17         1.4094    2.1980   -1.4896 C.ar      1 <0>         0.1132
     25 C18         0.8611    3.0314   -2.4550 C.ar      1 <0>        -0.0602
     26 C19        -0.4025    3.5588   -2.2737 C.ar      1 <0>        -0.1435
     27 C20        -1.1262    3.2487   -1.1346 C.ar      1 <0>         0.1147
     28 C21        -0.5811    2.4171   -0.1708 C.ar      1 <0>        -0.1433
     29 C22         0.6842    1.8920   -0.3461 C.ar      1 <0>        -0.0621
     30 F1         -2.3639    3.7618   -0.9611 F         1 <0>        -0.1330
     31 H1          9.6829   -2.3177    0.3367 H         1 <0>         0.0711
     32 H2          8.8175   -2.5928   -1.1942 H         1 <0>         0.0843
     33 H3         10.4162   -1.8102   -1.2037 H         1 <0>         0.0621
     34 H4          6.7189   -1.1010   -0.4630 H         1 <0>         0.1457
     35 H5         11.2359   -0.2382    1.3486 H         1 <0>         0.1434
     36 H6         13.6951    0.0769    1.1850 H         1 <0>         0.1482
     37 H7         14.6314    1.2668   -0.7557 H         1 <0>         0.1671
     38 H8         10.8540    1.8353   -2.3767 H         1 <0>         0.1614
     39 H9          9.0623    3.3847    0.7955 H         1 <0>         0.0871
     40 H10         9.8624    3.3025   -0.7923 H         1 <0>         0.0734
     41 H11         8.1304    3.6994   -0.6880 H         1 <0>         0.0903
     42 H12         5.9914    2.6056    0.4916 H         1 <0>         0.1524
     43 H13         4.1882   -0.3847   -3.6550 H         1 <0>         0.4354
     44 H14         1.4239    3.2708   -3.3451 H         1 <0>         0.1374
     45 H15        -0.8277    4.2106   -3.0225 H         1 <0>         0.1461
     46 H16        -1.1456    2.1794    0.7187 H         1 <0>         0.1462
     47 H17         1.1093    1.2441    0.4061 H         1 <0>         0.1373
@<TRIPOS>BOND
     1    1    2 1
     2    1   31 1
     3    1   32 1
     4    1   33 1
     5    2    6 1
     6    2    3 2
     7    3    4 1
     8    3   34 1
     9    4    5 2
    10    4   14 1
    11    5    6 1
    12    5   13 1
    13    6    7 1
    14    7   12 ar
    15    7    8 ar
    16    8    9 ar
    17    8   35 1
    18    9   10 ar
    19    9   36 1
    20   10   11 ar
    21   10   37 1
    22   11   12 ar
    23   12   38 1
    24   13   39 1
    25   13   40 1
    26   13   41 1
    27   14   15 2
    28   14   42 1
    29   15   22 1
    30   15   16 1
    31   16   17 2
    32   16   18 am
    33   18   19 am
    34   18   43 1
    35   19   20 2
    36   19   21 am
    37   21   22 am
    38   21   24 1
    39   22   23 2
    40   24   29 ar
    41   24   25 ar
    42   25   26 ar
    43   25   44 1
    44   26   27 ar
    45   26   45 1
    46   27   28 ar
    47   27   30 1
    48   28   29 ar
    49   28   46 1
    50   29   47 1
@<TRIPOS>MOLECULE
ZINC02776994
   41    44     0     0     0
SMALL
USER_CHARGES
2-(4-bromo-3-methyl-pyrazol-1-yl)-N-(methyl-oxo-BLAHyl)acetamide
@<TRIPOS>ATOM
      1 C1          8.5564    3.1331    5.3594 C.3       1 <0>        -0.0800
      2 C2          8.6984    2.1009    4.2706 C.2       1 <0>         0.1055
      3 C3          9.5383    0.9824    4.3049 C.2       1 <0>        -0.2335
      4 C4          9.3740    0.3028    3.1459 C.2       1 <0>         0.0970
      5 N1          8.4688    0.9727    2.4011 N.pl3     1 <0>        -0.3636
      6 N2          8.0571    2.0958    3.1300 N.2       1 <0>        -0.2534
      7 C5          7.9960    0.5892    1.0686 C.3       1 <0>         0.1342
      8 C6          6.4926    0.4847    1.0799 C.2       1 <0>         0.5053
      9 O1          5.8768    0.7085    2.1005 O.2       1 <0>        -0.4711
     10 N3          5.8325    0.1426   -0.0442 N.am      1 <0>        -0.5297
     11 N4          4.4349    0.0454   -0.0337 N.am      1 <0>        -0.3254
     12 C7          3.8532   -1.1816   -0.0352 C.2       1 <0>         0.4116
     13 N5          2.5537   -1.3155   -0.0259 N.2       1 <0>        -0.4710
     14 C8          1.7583   -0.2487   -0.0138 C.2       1 <0>         0.0947
     15 C9          2.2671    1.0567   -0.0113 C.2       1 <0>        -0.2243
     16 C10         3.6953    1.1707   -0.0220 C.2       1 <0>         0.5582
     17 O2          4.2308    2.2657   -0.0201 O.2       1 <0>        -0.4972
     18 C11         1.2715    2.1388    0.0014 C.2       1 <0>        -0.0737
     19 C12        -0.0220    1.7739    0.0118 C.2       1 <0>        -0.1946
     20 S1          0.0021   -0.0041    0.0020 S.3       1 <0>         0.2008
     21 C13        -0.9470    2.9611    0.0321 C.3       1 <0>        -0.0325
     22 C14        -0.0525    4.1432    0.4634 C.3       1 <0>        -0.1172
     23 C15         1.3395    3.6686    0.0022 C.3       1 <0>        -0.0634
     24 C16         4.7231   -2.4121   -0.0488 C.3       1 <0>        -0.1062
     25 Br1        10.6931    0.5013    5.7229 Br        1 <0>        -0.0136
     26 H1          7.7681    2.8287    6.0479 H         1 <0>         0.0838
     27 H2          9.4980    3.2214    5.9013 H         1 <0>         0.0842
     28 H3          8.3004    4.0956    4.9165 H         1 <0>         0.0791
     29 H4          9.8785   -0.6103    2.8660 H         1 <0>         0.1873
     30 H5          8.4251   -0.3744    0.7941 H         1 <0>         0.1399
     31 H6          8.3023    1.3432    0.3434 H         1 <0>         0.1301
     32 H7          6.3250   -0.0364   -0.8605 H         1 <0>         0.4282
     33 H8         -1.3594    3.1389   -0.9610 H         1 <0>         0.0901
     34 H9         -1.7477    2.8070    0.7555 H         1 <0>         0.0843
     35 H10        -0.0805    4.2774    1.5447 H         1 <0>         0.0787
     36 H11        -0.3419    5.0603   -0.0497 H         1 <0>         0.0878
     37 H12         2.1047    4.0116    0.6986 H         1 <0>         0.0801
     38 H13         1.5514    4.0371   -1.0015 H         1 <0>         0.0833
     39 H14         4.9414   -2.7140    0.9755 H         1 <0>         0.1044
     40 H15         4.2018   -3.2199   -0.5625 H         1 <0>         0.1126
     41 H16         5.6552   -2.1923   -0.5694 H         1 <0>         0.0894
@<TRIPOS>BOND
     1    1    2 1
     2    1   26 1
     3    1   27 1
     4    1   28 1
     5    2    6 2
     6    2    3 1
     7    3    4 2
     8    3   25 1
     9    4    5 1
    10    4   29 1
    11    5    6 1
    12    5    7 1
    13    7    8 1
    14    7   30 1
    15    7   31 1
    16    8    9 2
    17    8   10 am
    18   10   11 1
    19   10   32 1
    20   11   16 am
    21   11   12 1
    22   12   13 2
    23   12   24 1
    24   13   14 1
    25   14   20 1
    26   14   15 2
    27   15   16 1
    28   15   18 1
    29   16   17 2
    30   18   23 1
    31   18   19 2
    32   19   20 1
    33   19   21 1
    34   21   22 1
    35   21   33 1
    36   21   34 1
    37   22   23 1
    38   22   35 1
    39   22   36 1
    40   23   37 1
    41   23   38 1
    42   24   39 1
    43   24   40 1
    44   24   41 1
@<TRIPOS>MOLECULE
ZINC15066093
   51    54     0     0     0
SMALL
USER_CHARGES
(3S)-N-[2-[1-(5-methylthiophene-2-carbonyl)-4-piperidyl]pyrazol-3-yl]tetrahydrofuran-3-carboxamide
@<TRIPOS>ATOM
      1 C1         -1.7028   10.2847    5.3350 C.3       1 <0>        -0.0776
      2 C2         -1.6854   10.0463    3.8471 C.2       1 <0>        -0.1574
      3 C3         -1.5249   10.9539    2.8486 C.2       1 <0>        -0.1850
      4 C4         -1.5403   10.5255    1.5447 C.2       1 <0>        -0.0586
      5 C5         -1.7221    9.1685    1.3281 C.2       1 <0>        -0.2500
      6 S1         -1.8722    8.5485    2.9943 S.3       1 <0>         0.1459
      7 C6         -1.7820    8.4351    0.0604 C.2       1 <0>         0.6107
      8 O1         -2.0515    9.0229   -0.9706 O.2       1 <0>        -0.5200
      9 N1         -1.5388    7.1097    0.0366 N.am      1 <0>        -0.6114
     10 C7         -1.0736    6.4121    1.2432 C.3       1 <0>         0.1009
     11 C8          0.2092    5.6457    0.9060 C.3       1 <0>        -0.1392
     12 C9         -0.0497    4.7272   -0.2906 C.3       1 <0>         0.1676
     13 C10        -0.4428    5.5696   -1.5063 C.3       1 <0>        -0.1419
     14 C11        -1.7332    6.3349   -1.1966 C.3       1 <0>         0.1177
     15 N2          1.1657    3.9682   -0.5951 N.pl3     1 <0>        -0.3827
     16 C12         1.2849    2.6208   -0.5902 C.2       1 <0>         0.3002
     17 C13         2.5703    2.3208   -0.9224 C.2       1 <0>        -0.2750
     18 C14         3.2470    3.5236   -1.1429 C.2       1 <0>         0.0608
     19 N3          2.4087    4.5091   -0.9476 N.2       1 <0>        -0.2813
     20 N4          0.2749    1.7053   -0.2953 N.am      1 <0>        -0.6501
     21 C15         0.5343    0.3831   -0.3246 C.2       1 <0>         0.5332
     22 O2          1.6461   -0.0107   -0.6075 O.2       1 <0>        -0.4916
     23 C16        -0.5570   -0.6062   -0.0059 C.3       1 <0>        -0.1437
     24 H1         -1.3734   -0.5251   -0.7236 H         1 <0>         0.1206
     25 C17         0.0045   -2.0535    0.0380 C.3       1 <0>        -0.1359
     26 C18        -0.9837   -2.7225    1.0263 C.3       1 <0>         0.0489
     27 O3         -1.2827   -1.7101    2.0006 O.3       1 <0>        -0.3758
     28 C19        -1.0719   -0.4106    1.4363 C.3       1 <0>         0.0619
     29 H2         -2.7242   10.4840    5.6591 H         1 <0>         0.0845
     30 H3         -1.3244    9.4011    5.8490 H         1 <0>         0.0771
     31 H4         -1.0723   11.1414    5.5731 H         1 <0>         0.0843
     32 H5         -1.3864   12.0001    3.0784 H         1 <0>         0.1395
     33 H6         -1.4158   11.2155    0.7232 H         1 <0>         0.1470
     34 H7         -1.8394    5.7130    1.5792 H         1 <0>         0.0808
     35 H8         -0.8696    7.1371    2.0312 H         1 <0>         0.0984
     36 H9          0.5119    5.0472    1.7652 H         1 <0>         0.0860
     37 H10         1.0011    6.3522    0.6576 H         1 <0>         0.0898
     38 H11        -0.8583    4.0369   -0.0502 H         1 <0>         0.0929
     39 H12         0.3549    6.2772   -1.7319 H         1 <0>         0.0890
     40 H13        -0.6042    4.9169   -2.3643 H         1 <0>         0.0843
     41 H14        -2.5527    5.6295   -1.0595 H         1 <0>         0.0755
     42 H15        -1.9663    7.0105   -2.0196 H         1 <0>         0.1062
     43 H16         2.9911    1.3297   -1.0053 H         1 <0>         0.1721
     44 H17         4.2845    3.6226   -1.4263 H         1 <0>         0.1874
     45 H18        -0.6143    2.0202   -0.0690 H         1 <0>         0.4094
     46 H19        -0.0438   -2.5235   -0.9443 H         1 <0>         0.0941
     47 H20         1.0218   -2.0685    0.4291 H         1 <0>         0.0958
     48 H21        -0.5155   -3.5822    1.5056 H         1 <0>         0.0939
     49 H22        -1.8921   -3.0277    0.5070 H         1 <0>         0.0674
     50 H23        -0.3305    0.1316    2.0233 H         1 <0>         0.0742
     51 H24        -2.0107    0.1430    1.4219 H         1 <0>         0.0793
@<TRIPOS>BOND
     1    1    2 1
     2    1   29 1
     3    1   30 1
     4    1   31 1
     5    2    6 1
     6    2    3 2
     7    3    4 1
     8    3   32 1
     9    4    5 2
    10    4   33 1
    11    5    6 1
    12    5    7 1
    13    7    8 2
    14    7    9 am
    15    9   14 1
    16    9   10 1
    17   10   11 1
    18   10   34 1
    19   10   35 1
    20   11   12 1
    21   11   36 1
    22   11   37 1
    23   12   13 1
    24   12   15 1
    25   12   38 1
    26   13   14 1
    27   13   39 1
    28   13   40 1
    29   14   41 1
    30   14   42 1
    31   15   19 1
    32   15   16 1
    33   16   17 2
    34   16   20 1
    35   17   18 1
    36   17   43 1
    37   18   19 2
    38   18   44 1
    39   20   21 am
    40   20   45 1
    41   21   22 2
    42   21   23 1
    43   23   24 1
    44   23   28 1
    45   23   25 1
    46   25   26 1
    47   25   46 1
    48   25   47 1
    49   26   27 1
    50   26   48 1
    51   26   49 1
    52   27   28 1
    53   28   50 1
    54   28   51 1
@<TRIPOS>MOLECULE
ZINC15106383
   47    50     0     0     0
SMALL
USER_CHARGES
(4S)-6-[(3R)-1,1-dioxothiolan-3-yl]-1-methyl-4-(p-tolyl)-4,7-dihydro-3H-pyrrolo[3,4-e]pyrimidine-2,5-dione
@<TRIPOS>ATOM
      1 C1          2.4510    3.9366    0.0003 C.3       1 <0>        -0.1175
      2 C2          1.1563    3.1654    0.0081 C.ar      1 <0>        -0.0781
      3 C3          1.1750    1.7832    0.0004 C.ar      1 <0>        -0.1195
      4 C4         -0.0126    1.0758    0.0080 C.ar      1 <0>        -0.0798
      5 C5         -1.2190    1.7506    0.0173 C.ar      1 <0>        -0.1136
      6 C6         -1.2377    3.1328    0.0290 C.ar      1 <0>        -0.0946
      7 C7         -0.0501    3.8402    0.0223 C.ar      1 <0>        -0.1247
      8 C8         -2.5137    0.9795    0.0193 C.3       1 <0>         0.2544
      9 H1         -2.2919   -0.0448   -0.2802 H         1 <0>         0.0922
     10 C9         -3.0365    0.9477    1.4412 C.2       1 <0>        -0.2758
     11 C10        -4.2634    1.4584    1.6697 C.2       1 <0>         0.1726
     12 C11        -4.5227    1.2967    3.1507 C.3       1 <0>         0.1418
     13 N1         -3.3116    0.6508    3.6783 N.am      1 <0>        -0.6155
     14 C12        -2.4738    0.4678    2.6417 C.2       1 <0>         0.5789
     15 O1         -1.3733   -0.0456    2.7287 O.2       1 <0>        -0.5114
     16 C13        -3.0634    0.2767    5.0728 C.3       1 <0>         0.1804
     17 H2         -3.9242    0.5552    5.6807 H         1 <0>         0.1185
     18 C14        -1.8160    1.0156    5.5852 C.3       1 <0>        -0.1497
     19 C15        -1.3948    0.3741    6.9382 C.3       1 <0>        -0.5707
     20 S1         -1.6627   -1.4099    6.5633 S.o2      1 <0>         2.3751
     21 O2         -0.4480   -1.9686    6.0820 O.2       1 <0>        -0.9217
     22 O3         -2.3251   -2.0190    7.6631 O.2       1 <0>        -0.9341
     23 C16        -2.8451   -1.2529    5.1634 C.3       1 <0>        -0.6040
     24 N2         -5.0106    1.9861    0.6555 N.am      1 <0>        -0.5278
     25 C17        -4.5985    2.0399   -0.6178 C.2       1 <0>         0.7102
     26 O4         -5.3331    2.5293   -1.4536 O.2       1 <0>        -0.5556
     27 N3         -3.3953    1.5697   -1.0021 N.am      1 <0>        -0.7094
     28 C18        -6.3349    2.5231    0.9780 C.3       1 <0>         0.0714
     29 H3          2.7537    4.1281   -1.0291 H         1 <0>         0.0716
     30 H4          2.3125    4.8844    0.5206 H         1 <0>         0.0659
     31 H5          3.2232    3.3551    0.5040 H         1 <0>         0.0678
     32 H6          2.1175    1.2560   -0.0111 H         1 <0>         0.1240
     33 H7          0.0021   -0.0041    0.0020 H         1 <0>         0.1257
     34 H8         -2.1802    3.6601    0.0397 H         1 <0>         0.1107
     35 H9         -0.0647    4.9201    0.0280 H         1 <0>         0.1202
     36 H10        -4.6677    2.2703    3.6188 H         1 <0>         0.1149
     37 H11        -5.3935    0.6622    3.3161 H         1 <0>         0.1152
     38 H12        -1.0061    0.9157    4.8625 H         1 <0>         0.1064
     39 H13        -2.0481    2.0701    5.7345 H         1 <0>         0.1051
     40 H14        -0.3474    0.5770    7.1615 H         1 <0>         0.1466
     41 H15        -2.0406    0.7075    7.7505 H         1 <0>         0.1424
     42 H16        -3.7810   -1.7642    5.3888 H         1 <0>         0.1473
     43 H17        -2.4064   -1.6359    4.2421 H         1 <0>         0.1522
     44 H18        -3.1166    1.6188   -1.9299 H         1 <0>         0.4359
     45 H19        -6.2467    3.5796    1.2315 H         1 <0>         0.0746
     46 H20        -6.9926    2.4099    0.1162 H         1 <0>         0.0980
     47 H21        -6.7507    1.9794    1.8263 H         1 <0>         0.0838
@<TRIPOS>BOND
     1    1    2 1
     2    1   29 1
     3    1   30 1
     4    1   31 1
     5    2    7 ar
     6    2    3 ar
     7    3    4 ar
     8    3   32 1
     9    4    5 ar
    10    4   33 1
    11    5    6 ar
    12    5    8 1
    13    6    7 ar
    14    6   34 1
    15    7   35 1
    16    8    9 1
    17    8   27 1
    18    8   10 1
    19   10   14 1
    20   10   11 2
    21   11   12 1
    22   11   24 1
    23   12   13 1
    24   12   36 1
    25   12   37 1
    26   13   14 am
    27   13   16 1
    28   14   15 2
    29   16   17 1
    30   16   23 1
    31   16   18 1
    32   18   19 1
    33   18   38 1
    34   18   39 1
    35   19   20 1
    36   19   40 1
    37   19   41 1
    38   20   21 2
    39   20   22 2
    40   20   23 1
    41   23   42 1
    42   23   43 1
    43   24   25 am
    44   24   28 1
    45   25   26 2
    46   25   27 am
    47   27   44 1
    48   28   45 1
    49   28   46 1
    50   28   47 1
@<TRIPOS>MOLECULE
ZINC15106392
   47    50     0     0     0
SMALL
USER_CHARGES
(4R)-6-[(3S)-1,1-dioxothiolan-3-yl]-1-methyl-4-(p-tolyl)-4,7-dihydro-3H-pyrrolo[3,4-e]pyrimidine-2,5-dione
@<TRIPOS>ATOM
      1 C1          4.8310    4.9065   -4.6875 C.3       1 <0>        -0.1174
      2 C2          3.9546    4.9079   -3.4615 C.ar      1 <0>        -0.0781
      3 C3          4.4841    4.5596   -2.2330 C.ar      1 <0>        -0.1194
      4 C4          3.6802    4.5609   -1.1085 C.ar      1 <0>        -0.0798
      5 C5          2.3470    4.9114   -1.2123 C.ar      1 <0>        -0.1136
      6 C6          1.8164    5.2551   -2.4416 C.ar      1 <0>        -0.0946
      7 C7          2.6214    5.2580   -3.5654 C.ar      1 <0>        -0.1247
      8 C8          1.4706    4.9128    0.0137 C.3       1 <0>         0.2543
      9 H1          2.1211    4.9023    0.8882 H         1 <0>         0.0922
     10 C9          0.6660    3.6288    0.0144 C.2       1 <0>        -0.2758
     11 C10        -0.6785    3.7314    0.0272 C.2       1 <0>         0.1734
     12 C11        -1.2133    2.3169    0.0196 C.3       1 <0>         0.1424
     13 N1         -0.0178    1.4608    0.0101 N.am      1 <0>        -0.6156
     14 C12         1.0543    2.2735    0.0042 C.2       1 <0>         0.5788
     15 O1          2.2093    1.8887   -0.0089 O.2       1 <0>        -0.5116
     16 C13         0.0021   -0.0041    0.0020 C.3       1 <0>         0.1803
     17 H2         -1.0211   -0.3798    0.0130 H         1 <0>         0.1185
     18 C14         0.7124   -0.4980   -1.2692 C.3       1 <0>        -0.1497
     19 C15         0.9976   -2.0182   -1.1050 C.3       1 <0>        -0.5709
     20 S1          1.5218   -2.0741    0.6604 S.o2      1 <0>         2.3755
     21 O2          2.9354   -1.9457    0.7272 O.2       1 <0>        -0.9216
     22 O3          0.8890   -3.1758    1.2969 O.2       1 <0>        -0.9341
     23 C16         0.7505   -0.5147    1.2569 C.3       1 <0>        -0.6041
     24 N2         -1.2953    4.9499    0.0392 N.am      1 <0>        -0.5277
     25 C17        -0.6344    6.1149    0.0392 C.2       1 <0>         0.7106
     26 O4         -1.2694    7.1513    0.0500 O.2       1 <0>        -0.5566
     27 N3          0.7120    6.1750    0.0272 N.am      1 <0>        -0.7091
     28 C18        -2.7598    4.9846    0.0527 C.3       1 <0>         0.0640
     29 H3          4.7981    3.9232   -5.1565 H         1 <0>         0.0714
     30 H4          4.4720    5.6571   -5.3916 H         1 <0>         0.0661
     31 H5          5.8569    5.1383   -4.4010 H         1 <0>         0.0677
     32 H6          5.5257    4.2861   -2.1518 H         1 <0>         0.1240
     33 H7          4.0937    4.2884   -0.1487 H         1 <0>         0.1258
     34 H8          0.7738    5.5247   -2.5235 H         1 <0>         0.1107
     35 H9          2.2078    5.5304   -4.5252 H         1 <0>         0.1202
     36 H10        -1.8127    2.1411   -0.8736 H         1 <0>         0.1148
     37 H11        -1.8047    2.1322    0.9164 H         1 <0>         0.1151
     38 H12         0.0716   -0.3351   -2.1358 H         1 <0>         0.1050
     39 H13         1.6510    0.0407   -1.3994 H         1 <0>         0.1060
     40 H14         1.8020   -2.3419   -1.7655 H         1 <0>         0.1466
     41 H15         0.0960   -2.6089   -1.2674 H         1 <0>         0.1425
     42 H16         1.5130    0.1988    1.5692 H         1 <0>         0.1523
     43 H17         0.0518   -0.7121    2.0699 H         1 <0>         0.1474
     44 H18         1.1706    7.0297    0.0277 H         1 <0>         0.4360
     45 H19        -3.0986    6.0205    0.0612 H         1 <0>         0.1084
     46 H20        -3.1434    4.4841   -0.8364 H         1 <0>         0.0770
     47 H21        -3.1271    4.4749    0.9435 H         1 <0>         0.0774
@<TRIPOS>BOND
     1    1    2 1
     2    1   29 1
     3    1   30 1
     4    1   31 1
     5    2    7 ar
     6    2    3 ar
     7    3    4 ar
     8    3   32 1
     9    4    5 ar
    10    4   33 1
    11    5    6 ar
    12    5    8 1
    13    6    7 ar
    14    6   34 1
    15    7   35 1
    16    8    9 1
    17    8   27 1
    18    8   10 1
    19   10   14 1
    20   10   11 2
    21   11   12 1
    22   11   24 1
    23   12   13 1
    24   12   36 1
    25   12   37 1
    26   13   14 am
    27   13   16 1
    28   14   15 2
    29   16   17 1
    30   16   23 1
    31   16   18 1
    32   18   19 1
    33   18   38 1
    34   18   39 1
    35   19   20 1
    36   19   40 1
    37   19   41 1
    38   20   21 2
    39   20   22 2
    40   20   23 1
    41   23   42 1
    42   23   43 1
    43   24   25 am
    44   24   28 1
    45   25   26 2
    46   25   27 am
    47   27   44 1
    48   28   45 1
    49   28   46 1
    50   28   47 1
@<TRIPOS>MOLECULE
ZINC16040983
   48    52     0     0     0
SMALL
USER_CHARGES
[(3S)-1,1-dioxothiolan-3-yl]-dimethyl-BLAHdione
@<TRIPOS>ATOM
      1 C1         -0.0127    1.0858    0.0080 C.3       1 <0>        -0.1584
      2 C2         -0.7288    1.5792    1.2668 C.3       1 <0>         0.2749
      3 C3         -0.0065    1.0845    2.5044 C.2       1 <0>         0.0648
      4 C4          0.6679    1.8922    3.3498 C.2       1 <0>        -0.1561
      5 C5          1.2173    1.0424    4.3903 C.ar      1 <0>        -0.1003
      6 C6          1.9992    1.3136    5.5172 C.ar      1 <0>        -0.0660
      7 C7          2.3438    0.2428    6.3049 C.ar      1 <0>        -0.1462
      8 C8          1.9417   -1.0492    6.0076 C.ar      1 <0>        -0.0951
      9 C9          1.1688   -1.3457    4.8984 C.ar      1 <0>        -0.1299
     10 C10         0.8046   -0.2782    4.0800 C.ar      1 <0>         0.1051
     11 N1          0.0662   -0.2137    2.9339 N.pl3     1 <0>        -0.5741
     12 H1         -0.3448   -0.9724    2.4908 H         1 <0>         0.4181
     13 C11         0.8006    3.3891    3.2235 C.3       1 <0>        -0.0391
     14 C12         0.4935    3.8075    1.7808 C.3       1 <0>         0.0916
     15 H2          1.3508    3.6498    1.1264 H         1 <0>         0.1411
     16 N2         -0.6907    3.0456    1.3265 N.am      1 <0>        -0.6083
     17 C13        -1.6398    3.9323    1.0210 C.2       1 <0>         0.7099
     18 O1         -2.7233    3.6340    0.5581 O.2       1 <0>        -0.5283
     19 N3         -1.2595    5.1907    1.2847 N.am      1 <0>        -0.5712
     20 C14         0.0021    5.2407    1.7598 C.2       1 <0>         0.5301
     21 O2          0.6161    6.2290    2.1006 O.2       1 <0>        -0.4543
     22 C15        -2.1095    6.3666    1.0818 C.3       1 <0>         0.1541
     23 H3         -1.5635    7.2627    1.3766 H         1 <0>         0.1310
     24 C16        -2.4927    6.4692   -0.4038 C.3       1 <0>        -0.1483
     25 C17        -3.6308    7.5208   -0.5388 C.3       1 <0>        -0.5686
     26 S1         -4.6518    7.1039    0.9372 S.o2      1 <0>         2.3793
     27 O3         -5.6573    6.1748    0.5564 O.2       1 <0>        -0.9196
     28 O4         -5.0236    8.3064    1.5968 O.2       1 <0>        -0.9305
     29 C18        -3.3853    6.2340    1.9480 C.3       1 <0>        -0.6047
     30 C19        -2.1779    1.0883    1.2728 C.3       1 <0>        -0.1562
     31 H4          0.0021   -0.0041    0.0020 H         1 <0>         0.0761
     32 H5          1.0099    1.4631    0.0003 H         1 <0>         0.0685
     33 H6         -0.5399    1.4469   -0.8751 H         1 <0>         0.0763
     34 H7          2.3175    2.3175    5.7565 H         1 <0>         0.1306
     35 H8          2.9470    0.4134    7.1843 H         1 <0>         0.1204
     36 H9          2.2420   -1.8527    6.6638 H         1 <0>         0.1231
     37 H10         0.8618   -2.3573    4.6776 H         1 <0>         0.1296
     38 H11         0.0977    3.8748    3.9004 H         1 <0>         0.0824
     39 H12         1.8173    3.6869    3.4798 H         1 <0>         0.1008
     40 H13        -1.6275    6.7863   -0.9861 H         1 <0>         0.1073
     41 H14        -2.8419    5.5007   -0.7617 H         1 <0>         0.1096
     42 H15        -4.1937    7.3762   -1.4610 H         1 <0>         0.1493
     43 H16        -3.2400    8.5362   -0.4738 H         1 <0>         0.1445
     44 H17        -3.6526    5.1862    2.0844 H         1 <0>         0.1525
     45 H18        -3.2523    6.7285    2.9102 H         1 <0>         0.1497
     46 H19        -2.1924   -0.0015    1.2565 H         1 <0>         0.0709
     47 H20        -2.6787    1.4449    2.1728 H         1 <0>         0.0682
     48 H21        -2.6950    1.4717    0.3931 H         1 <0>         0.0955
@<TRIPOS>BOND
     1    1    2 1
     2    1   31 1
     3    1   32 1
     4    1   33 1
     5    2   16 1
     6    2    3 1
     7    2   30 1
     8    3   11 1
     9    3    4 2
    10    4    5 1
    11    4   13 1
    12    5   10 ar
    13    5    6 ar
    14    6    7 ar
    15    6   34 1
    16    7    8 ar
    17    7   35 1
    18    8    9 ar
    19    8   36 1
    20    9   10 ar
    21    9   37 1
    22   10   11 1
    23   11   12 1
    24   13   14 1
    25   13   38 1
    26   13   39 1
    27   14   15 1
    28   14   20 1
    29   14   16 1
    30   16   17 am
    31   17   18 2
    32   17   19 am
    33   19   20 am
    34   19   22 1
    35   20   21 2
    36   22   23 1
    37   22   29 1
    38   22   24 1
    39   24   25 1
    40   24   40 1
    41   24   41 1
    42   25   26 1
    43   25   42 1
    44   25   43 1
    45   26   27 2
    46   26   28 2
    47   26   29 1
    48   29   44 1
    49   29   45 1
    50   30   46 1
    51   30   47 1
    52   30   48 1
@<TRIPOS>MOLECULE
ZINC02776906
   41    44     0     0     0
SMALL
USER_CHARGES
2-(4-bromo-5-methyl-pyrazol-1-yl)-N-(methyl-oxo-BLAHyl)acetamide
@<TRIPOS>ATOM
      1 C1          8.4135    3.4974    2.0601 C.3       1 <0>        -0.1043
      2 C2          8.6550    2.2340    2.8453 C.2       1 <0>         0.1405
      3 C3          9.0945    2.1602    4.1235 C.2       1 <0>        -0.2417
      4 C4          9.1882    0.8076    4.4689 C.2       1 <0>         0.0919
      5 N1          8.8134    0.0953    3.4373 N.2       1 <0>        -0.2755
      6 N2          8.4688    0.9727    2.4011 N.pl3     1 <0>        -0.3583
      7 C5          7.9960    0.5892    1.0686 C.3       1 <0>         0.1309
      8 C6          6.4926    0.4847    1.0799 C.2       1 <0>         0.5028
      9 O1          5.8768    0.7085    2.1005 O.2       1 <0>        -0.4817
     10 N3          5.8325    0.1426   -0.0442 N.am      1 <0>        -0.5277
     11 N4          4.4349    0.0454   -0.0337 N.am      1 <0>        -0.3258
     12 C7          3.8532   -1.1816   -0.0352 C.2       1 <0>         0.4128
     13 N5          2.5537   -1.3155   -0.0259 N.2       1 <0>        -0.4705
     14 C8          1.7583   -0.2487   -0.0138 C.2       1 <0>         0.0956
     15 C9          2.2671    1.0567   -0.0113 C.2       1 <0>        -0.2257
     16 C10         3.6953    1.1707   -0.0220 C.2       1 <0>         0.5601
     17 O2          4.2308    2.2657   -0.0201 O.2       1 <0>        -0.5019
     18 C11         1.2715    2.1388    0.0014 C.2       1 <0>        -0.0743
     19 C12        -0.0220    1.7739    0.0118 C.2       1 <0>        -0.1944
     20 S1          0.0021   -0.0041    0.0020 S.3       1 <0>         0.2021
     21 C13        -0.9470    2.9611    0.0321 C.3       1 <0>        -0.0328
     22 C14        -0.0525    4.1432    0.4634 C.3       1 <0>        -0.1174
     23 C15         1.3395    3.6686    0.0022 C.3       1 <0>        -0.0626
     24 C16         4.7231   -2.4121   -0.0488 C.3       1 <0>        -0.1072
     25 Br1         9.5146    3.6260    5.2420 Br        1 <0>        -0.0139
     26 H1          7.3849    3.8263    2.2085 H         1 <0>         0.0921
     27 H2          9.0965    4.2745    2.4031 H         1 <0>         0.0963
     28 H3          8.5843    3.3052    1.0009 H         1 <0>         0.0762
     29 H4          9.5133    0.4186    5.4225 H         1 <0>         0.1953
     30 H5          8.4251   -0.3744    0.7941 H         1 <0>         0.1415
     31 H6          8.3023    1.3432    0.3434 H         1 <0>         0.1360
     32 H7          6.3250   -0.0364   -0.8605 H         1 <0>         0.4292
     33 H8         -1.3594    3.1389   -0.9610 H         1 <0>         0.0903
     34 H9         -1.7477    2.8070    0.7555 H         1 <0>         0.0845
     35 H10        -0.0805    4.2774    1.5447 H         1 <0>         0.0786
     36 H11        -0.3419    5.0603   -0.0497 H         1 <0>         0.0879
     37 H12         2.1047    4.0116    0.6986 H         1 <0>         0.0795
     38 H13         1.5514    4.0371   -1.0015 H         1 <0>         0.0833
     39 H14         4.9414   -2.7140    0.9755 H         1 <0>         0.1057
     40 H15         4.2018   -3.2199   -0.5625 H         1 <0>         0.1129
     41 H16         5.6552   -2.1923   -0.5694 H         1 <0>         0.0898
@<TRIPOS>BOND
     1    1    2 1
     2    1   26 1
     3    1   27 1
     4    1   28 1
     5    2    6 1
     6    2    3 2
     7    3    4 1
     8    3   25 1
     9    4    5 2
    10    4   29 1
    11    5    6 1
    12    6    7 1
    13    7    8 1
    14    7   30 1
    15    7   31 1
    16    8    9 2
    17    8   10 am
    18   10   11 1
    19   10   32 1
    20   11   16 am
    21   11   12 1
    22   12   13 2
    23   12   24 1
    24   13   14 1
    25   14   20 1
    26   14   15 2
    27   15   16 1
    28   15   18 1
    29   16   17 2
    30   18   23 1
    31   18   19 2
    32   19   20 1
    33   19   21 1
    34   21   22 1
    35   21   33 1
    36   21   34 1
    37   22   23 1
    38   22   35 1
    39   22   36 1
    40   23   37 1
    41   23   38 1
    42   24   39 1
    43   24   40 1
    44   24   41 1
@<TRIPOS>MOLECULE
ZINC19577671
   53    55     0     0     0
SMALL
USER_CHARGES
1-acetyl-N-[(1R)-1-(1,3,5-trimethylpyrazol-4-yl)ethyl]-3,4-dihydro-2H-quinoline-6-sulfonamide
@<TRIPOS>ATOM
      1 C1          3.6755   -0.8418   -7.5156 C.3       1 <0>        -0.0851
      2 C2          4.7142    0.1705   -7.9248 C.2       1 <0>         0.0886
      3 C3          5.3813    1.0530   -7.0689 C.2       1 <0>        -0.2396
      4 C4          6.2273    1.7987   -7.8167 C.2       1 <0>         0.1025
      5 N1          6.1063    1.3964   -9.0991 N.pl3     1 <0>        -0.3708
      6 N2          5.1479    0.3755   -9.1420 N.2       1 <0>        -0.2959
      7 C5          6.8428    1.9359  -10.2448 C.3       1 <0>         0.0957
      8 C6          7.1431    2.8820   -7.3080 C.3       1 <0>        -0.1041
      9 C7          5.1875    1.1589   -5.5781 C.3       1 <0>         0.2321
     10 H1          5.9807    1.7844   -5.1426 H         1 <0>         0.0954
     11 C8          3.8040    1.7422   -5.2839 C.3       1 <0>        -0.1742
     12 N3          5.2943   -0.1724   -4.9760 N.pl3     1 <0>        -1.1175
     13 S1          5.9583   -0.3487   -3.4692 S.o2      1 <0>         2.6908
     14 O1          7.1803    0.3764   -3.4765 O.2       1 <0>        -0.9568
     15 O2          5.8961   -1.7337   -3.1575 O.2       1 <0>        -0.9617
     16 C9          4.8926    0.4719   -2.3310 C.ar      1 <0>        -0.7000
     17 C10         5.0936    1.8086   -2.0385 C.ar      1 <0>        -0.0029
     18 C11         4.2594    2.4507   -1.1456 C.ar      1 <0>        -0.1719
     19 C12         3.2189    1.7543   -0.5411 C.ar      1 <0>         0.2116
     20 C13         3.0167    0.4156   -0.8361 C.ar      1 <0>        -0.1373
     21 C14         3.8586   -0.2214   -1.7327 C.ar      1 <0>         0.0038
     22 C15         1.8975   -0.3691   -0.2039 C.3       1 <0>        -0.0818
     23 C16         1.4261    0.3111    1.0811 C.3       1 <0>        -0.1401
     24 C17         1.1299    1.7864    0.7814 C.3       1 <0>         0.0949
     25 N4          2.3888    2.4224    0.3698 N.am      1 <0>        -0.5579
     26 C18         2.7396    3.6279    0.8598 C.2       1 <0>         0.5132
     27 O3          3.8301    4.0928    0.6033 O.2       1 <0>        -0.5120
     28 C19         1.7770    4.3982    1.7264 C.3       1 <0>        -0.1770
     29 H2          3.5158   -0.7844   -6.4288 H         1 <0>         0.0788
     30 H3          4.0220   -1.8511   -7.7825 H         1 <0>         0.0814
     31 H4          2.7306   -0.6287   -8.0368 H         1 <0>         0.0806
     32 H5          6.5328    1.4107  -11.1602 H         1 <0>         0.0967
     33 H6          7.9220    1.7925  -10.0874 H         1 <0>         0.0810
     34 H7          6.6266    3.0096  -10.3470 H         1 <0>         0.0803
     35 H8          7.7087    3.3090   -8.1493 H         1 <0>         0.0721
     36 H9          7.8431    2.4557   -6.5743 H         1 <0>         0.0922
     37 H10         6.5460    3.6720   -6.8291 H         1 <0>         0.0875
     38 H11         3.6625    1.8195   -4.1958 H         1 <0>         0.0633
     39 H12         3.0310    1.0847   -5.7084 H         1 <0>         0.0670
     40 H13         3.7238    2.7418   -5.7360 H         1 <0>         0.0693
     41 H14         4.7900   -1.0302   -5.4449 H         1 <0>         0.4361
     42 H15         5.9019    2.3494   -2.5082 H         1 <0>         0.1411
     43 H16         4.4149    3.4947   -0.9167 H         1 <0>         0.1734
     44 H17         3.7061   -1.2651   -1.9647 H         1 <0>         0.1420
     45 H18         1.0525   -0.4326   -0.9053 H         1 <0>         0.0831
     46 H19         2.2508   -1.3825    0.0372 H         1 <0>         0.0872
     47 H20         0.5144   -0.1850    1.4454 H         1 <0>         0.0924
     48 H21         2.2139    0.2374    1.8453 H         1 <0>         0.0751
     49 H22         0.3861    1.8543   -0.0261 H         1 <0>         0.0838
     50 H23         0.7347    2.2721    1.6858 H         1 <0>         0.1004
     51 H24         2.2370    5.3507    2.0283 H         1 <0>         0.1017
     52 H25         1.5364    3.8070    2.6223 H         1 <0>         0.0952
     53 H26         0.8550    4.5992    1.1612 H         1 <0>         0.0961
@<TRIPOS>BOND
     1    1    2 1
     2    1   29 1
     3    1   30 1
     4    1   31 1
     5    2    6 2
     6    2    3 1
     7    3    4 2
     8    3    9 1
     9    4    5 1
    10    4    8 1
    11    5    6 1
    12    5    7 1
    13    7   32 1
    14    7   33 1
    15    7   34 1
    16    8   35 1
    17    8   36 1
    18    8   37 1
    19    9   10 1
    20    9   11 1
    21    9   12 1
    22   11   38 1
    23   11   39 1
    24   11   40 1
    25   12   13 1
    26   12   41 1
    27   13   14 2
    28   13   15 2
    29   13   16 1
    30   16   21 ar
    31   16   17 ar
    32   17   18 ar
    33   17   42 1
    34   18   19 ar
    35   18   43 1
    36   19   25 1
    37   19   20 ar
    38   20   21 ar
    39   20   22 1
    40   21   44 1
    41   22   23 1
    42   22   45 1
    43   22   46 1
    44   23   24 1
    45   23   47 1
    46   23   48 1
    47   24   25 1
    48   24   49 1
    49   24   50 1
    50   25   26 am
    51   26   27 2
    52   26   28 1
    53   28   51 1
    54   28   52 1
    55   28   53 1
@<TRIPOS>MOLECULE
ZINC20616390
   40    42     0     0     0
SMALL
USER_CHARGES
(2S)-2-(4-bromo-5-methyl-pyrazol-1-yl)-N-(2,6-dimethyl-4-oxo-thieno[2,3-d]pyrimidin-3-yl)propanamide
@<TRIPOS>ATOM
      1 C1         -1.2112    2.2564    0.0204 C.3       1 <0>        -0.0738
      2 C2         -0.0161    1.3384    0.0094 C.2       1 <0>        -0.1528
      3 C3          0.0021   -0.0041    0.0020 C.2       1 <0>        -0.0946
      4 C4          1.2779   -0.6949   -0.0139 C.2       1 <0>        -0.2406
      5 C5          2.4079    0.1425   -0.0202 C.2       1 <0>         0.1021
      6 S1          1.7124    1.7748   -0.0048 S.3       1 <0>         0.1542
      7 N1          3.6449   -0.3453   -0.0346 N.2       1 <0>        -0.4770
      8 C6          3.8600   -1.6335   -0.0444 C.2       1 <0>         0.4161
      9 N2          2.8298   -2.5181   -0.0393 N.am      1 <0>        -0.3206
     10 C7          1.5498   -2.1019   -0.0245 C.2       1 <0>         0.5605
     11 O1          0.6364   -2.9091   -0.0205 O.2       1 <0>        -0.5072
     12 N3          3.1047   -3.8918   -0.0502 N.am      1 <0>        -0.5406
     13 C8          2.9299   -4.6051   -1.1803 C.2       1 <0>         0.5129
     14 O2          2.5346   -4.0577   -2.1878 O.2       1 <0>        -0.4765
     15 C9          3.2257   -6.0827   -1.1921 C.3       1 <0>         0.1626
     16 H1          2.5616   -6.6013   -0.4849 H         1 <0>         0.1379
     17 C10         4.6955   -6.3115   -0.8342 C.3       1 <0>        -0.1634
     18 N4          2.9581   -6.6237   -2.5270 N.pl3     1 <0>        -0.3571
     19 C11         2.0688   -7.5942   -2.8271 C.2       1 <0>         0.1288
     20 C12         2.1236   -7.8047   -4.1632 C.2       1 <0>        -0.2381
     21 C13         3.0789   -6.9331   -4.6973 C.2       1 <0>         0.0832
     22 N5          3.5755   -6.2211   -3.7183 N.2       1 <0>        -0.2601
     23 Br1         1.0908   -9.0550   -5.1358 Br        1 <0>        -0.0154
     24 C14         1.1751   -8.3137   -1.8500 C.3       1 <0>        -0.1107
     25 C15         5.2766   -2.1472   -0.0611 C.3       1 <0>        -0.1117
     26 H2         -2.1337    1.6573    0.0276 H         1 <0>         0.0868
     27 H3         -1.1937    2.8918   -0.8773 H         1 <0>         0.0824
     28 H4         -1.1785    2.8901    0.9189 H         1 <0>         0.0824
     29 H5         -0.9220   -0.5631    0.0082 H         1 <0>         0.1443
     30 H6          3.4632   -4.3882    0.8636 H         1 <0>         0.4528
     31 H7          4.9114   -7.3901   -0.8428 H         1 <0>         0.0863
     32 H8          4.8963   -5.9054    0.1682 H         1 <0>         0.0868
     33 H9          5.3355   -5.8035   -1.5706 H         1 <0>         0.0855
     34 H10         3.3557   -6.8581   -5.7385 H         1 <0>         0.1929
     35 H11         0.5609   -9.0503   -2.3887 H         1 <0>         0.0984
     36 H12         0.5197   -7.5864   -1.3484 H         1 <0>         0.0847
     37 H13         1.7924   -8.8295   -1.0997 H         1 <0>         0.0867
     38 H14         5.2677   -3.2471   -0.0676 H         1 <0>         0.0886
     39 H15         5.8067   -1.7901    0.8342 H         1 <0>         0.1124
     40 H16         5.7894   -1.7793   -0.9620 H         1 <0>         0.1106
@<TRIPOS>BOND
     1    1    2 1
     2    1   26 1
     3    1   27 1
     4    1   28 1
     5    2    6 1
     6    2    3 2
     7    3    4 1
     8    3   29 1
     9    4   10 1
    10    4    5 2
    11    5    6 1
    12    5    7 1
    13    7    8 2
    14    8    9 1
    15    8   25 1
    16    9   10 am
    17    9   12 1
    18   10   11 2
    19   12   13 am
    20   12   30 1
    21   13   14 2
    22   13   15 1
    23   15   16 1
    24   15   17 1
    25   15   18 1
    26   17   31 1
    27   17   32 1
    28   17   33 1
    29   18   22 1
    30   18   19 1
    31   19   20 2
    32   19   24 1
    33   20   21 1
    34   20   23 1
    35   21   22 2
    36   21   34 1
    37   24   35 1
    38   24   36 1
    39   24   37 1
    40   25   38 1
    41   25   39 1
    42   25   40 1
@<TRIPOS>MOLECULE
ZINC20616391
   40    42     0     0     0
SMALL
USER_CHARGES
(2R)-2-(4-bromo-5-methyl-pyrazol-1-yl)-N-(2,6-dimethyl-4-oxo-thieno[2,3-d]pyrimidin-3-yl)propanamide
@<TRIPOS>ATOM
      1 C1         -1.1677   -0.9542    0.0081 C.3       1 <0>        -0.0738
      2 C2          0.0021   -0.0041    0.0020 C.2       1 <0>        -0.1528
      3 C3         -0.0161    1.3384    0.0094 C.2       1 <0>        -0.0946
      4 C4          1.2405    2.0638    0.0013 C.2       1 <0>        -0.2406
      5 C5          2.3928    1.2574   -0.0140 C.2       1 <0>         0.1021
      6 S1          1.7418   -0.3932   -0.0167 S.3       1 <0>         0.1542
      7 N1          3.6161    1.7786   -0.0229 N.2       1 <0>        -0.4770
      8 C6          3.7962    3.0723   -0.0177 C.2       1 <0>         0.4160
      9 N2          2.7424    3.9285   -0.0031 N.am      1 <0>        -0.3205
     10 C7          1.4742    3.4777    0.0066 C.2       1 <0>         0.5605
     11 O1          0.5393    4.2597    0.0194 O.2       1 <0>        -0.5072
     12 N3          2.9800    5.3091    0.0025 N.am      1 <0>        -0.5407
     13 C8          2.7861    6.0309   -1.1191 C.2       1 <0>         0.5129
     14 O2          2.4059    5.4851   -2.1332 O.2       1 <0>        -0.4766
     15 C9          3.0417    7.5160   -1.1130 C.3       1 <0>         0.1627
     16 H1          2.3637    8.0078   -0.4000 H         1 <0>         0.1379
     17 C10         4.5048    7.7803   -0.7518 C.3       1 <0>        -0.1633
     18 N4          2.7598    8.0654   -2.4415 N.pl3     1 <0>        -0.3571
     19 C11         1.8409    9.0111   -2.7313 C.2       1 <0>         0.1289
     20 C12         1.8938    9.2429   -4.0639 C.2       1 <0>        -0.2382
     21 C13         2.8725    8.4039   -4.6080 C.2       1 <0>         0.0834
     22 N5          3.3920    7.6980   -3.6364 N.2       1 <0>        -0.2603
     23 Br1         0.8284   10.4769   -5.0220 Br        1 <0>        -0.0153
     24 C14         0.9232    9.6897   -1.7472 C.3       1 <0>        -0.1108
     25 C15         5.1984    3.6244   -0.0276 C.3       1 <0>        -0.1117
     26 H2         -2.1061   -0.3803    0.0201 H         1 <0>         0.0868
     27 H3         -1.1168   -1.5927    0.9024 H         1 <0>         0.0825
     28 H4         -1.1340   -1.5831   -0.8938 H         1 <0>         0.0824
     29 H5         -0.9550    1.8721    0.0168 H         1 <0>         0.1443
     30 H6          3.3248    5.8041    0.9223 H         1 <0>         0.4528
     31 H7          4.6913    8.8644   -0.7474 H         1 <0>         0.0863
     32 H8          5.1584    7.2988   -1.4940 H         1 <0>         0.0855
     33 H9          4.7165    7.3677    0.2457 H         1 <0>         0.0868
     34 H10         3.1513    8.3487   -5.6499 H         1 <0>         0.1929
     35 H11         0.2870   10.4133   -2.2779 H         1 <0>         0.0984
     36 H12         1.5226   10.2152   -0.9892 H         1 <0>         0.0867
     37 H13         0.2902    8.9359   -1.2562 H         1 <0>         0.0847
     38 H14         5.1597    4.7237   -0.0214 H         1 <0>         0.0886
     39 H15         5.7213    3.2810   -0.9324 H         1 <0>         0.1106
     40 H16         5.7377    3.2715    0.8638 H         1 <0>         0.1124
@<TRIPOS>BOND
     1    1    2 1
     2    1   26 1
     3    1   27 1
     4    1   28 1
     5    2    6 1
     6    2    3 2
     7    3    4 1
     8    3   29 1
     9    4   10 1
    10    4    5 2
    11    5    6 1
    12    5    7 1
    13    7    8 2
    14    8    9 1
    15    8   25 1
    16    9   10 am
    17    9   12 1
    18   10   11 2
    19   12   13 am
    20   12   30 1
    21   13   14 2
    22   13   15 1
    23   15   16 1
    24   15   17 1
    25   15   18 1
    26   17   31 1
    27   17   32 1
    28   17   33 1
    29   18   22 1
    30   18   19 1
    31   19   20 2
    32   19   24 1
    33   20   21 1
    34   20   23 1
    35   21   22 2
    36   21   34 1
    37   24   35 1
    38   24   36 1
    39   24   37 1
    40   25   38 1
    41   25   39 1
    42   25   40 1
@<TRIPOS>MOLECULE
ZINC22978674
   47    50     0     0     0
SMALL
USER_CHARGES
N-[4-[[(4S)-2,5-dioxospiro[imidazolidine-4,1'-indane]-1-yl]methyl]thiazol-2-yl]-N-ethyl-acetamide
@<TRIPOS>ATOM
      1 C1         -9.1432    6.6148   -2.0492 C.3       1 <0>        -0.1785
      2 C2         -8.0315    6.6888   -1.0006 C.3       1 <0>         0.0953
      3 N1         -7.5096    5.3437   -0.7464 N.am      1 <0>        -0.5151
      4 C3         -6.4479    4.8563   -1.4996 C.2       1 <0>         0.3131
      5 N2         -5.8455    3.6857   -1.4220 N.2       1 <0>        -0.4942
      6 C4         -4.8422    3.3793   -2.2209 C.2       1 <0>         0.0589
      7 C5         -4.4344    4.3001   -3.1281 C.2       1 <0>        -0.2102
      8 S1         -5.5745    5.6324   -2.7841 S.3       1 <0>         0.0559
      9 C6         -4.1606    2.0388   -2.1233 C.3       1 <0>         0.1910
     10 N3         -3.1272    2.0908   -1.0862 N.am      1 <0>        -0.5707
     11 C7         -1.8426    2.4430   -1.3109 C.2       1 <0>         0.5379
     12 O1         -1.3415    2.7635   -2.3673 O.2       1 <0>        -0.4574
     13 C8         -1.1659    2.3517    0.0319 C.3       1 <0>         0.1509
     14 C9         -0.5778    3.7048    0.4492 C.3       1 <0>        -0.1105
     15 C10         0.8965    3.5712    0.0053 C.3       1 <0>        -0.0806
     16 C11         1.1773    2.0828    0.0020 C.ar      1 <0>        -0.0673
     17 C12        -0.0167    1.3806    0.0096 C.ar      1 <0>        -0.1102
     18 C13         0.0021   -0.0041    0.0020 C.ar      1 <0>        -0.0819
     19 C14         1.2035   -0.6852   -0.0102 C.ar      1 <0>        -0.1213
     20 C15         2.3943    0.0163   -0.0153 C.ar      1 <0>        -0.1007
     21 C16         2.3796    1.3975   -0.0095 C.ar      1 <0>        -0.1083
     22 N4         -2.2224    1.9230    0.9490 N.am      1 <0>        -0.7300
     23 C17        -3.3386    1.7955    0.2032 C.2       1 <0>         0.7077
     24 O2         -4.4151    1.4517    0.6504 O.2       1 <0>        -0.5123
     25 C18        -8.0590    4.5789    0.2178 C.2       1 <0>         0.5004
     26 O3         -7.6270    3.4653    0.4283 O.2       1 <0>        -0.4604
     27 C19        -9.2101    5.1074    1.0344 C.3       1 <0>        -0.1709
     28 H1         -9.5350    7.6248   -2.2400 H         1 <0>         0.0829
     29 H2         -9.9543    5.9707   -1.6788 H         1 <0>         0.0665
     30 H3         -8.7394    6.1957   -2.9827 H         1 <0>         0.0643
     31 H4         -7.2204    7.3329   -1.3710 H         1 <0>         0.0896
     32 H5         -8.4352    7.1079   -0.0671 H         1 <0>         0.1061
     33 H6         -3.6403    4.2438   -3.8580 H         1 <0>         0.2024
     34 H7         -4.9019    1.2686   -1.8640 H         1 <0>         0.1159
     35 H8         -3.6978    1.7915   -3.0901 H         1 <0>         0.1148
     36 H9         -1.1116    4.5130   -0.0722 H         1 <0>         0.0847
     37 H10        -0.6890    3.8335    1.5360 H         1 <0>         0.0954
     38 H11         1.0186    4.0078   -0.9970 H         1 <0>         0.0942
     39 H12         1.5437    4.1030    0.7182 H         1 <0>         0.0881
     40 H13        -0.9274   -0.5541    0.0060 H         1 <0>         0.1193
     41 H14         1.2123   -1.7651   -0.0160 H         1 <0>         0.1288
     42 H15         3.3348   -0.5147   -0.0235 H         1 <0>         0.1293
     43 H16         3.3105    1.9451   -0.0139 H         1 <0>         0.1264
     44 H17        -1.9981    1.7746    2.0156 H         1 <0>         0.4688
     45 H18        -9.5210    4.3464    1.7654 H         1 <0>         0.1019
     46 H19       -10.0538    5.3431    0.3691 H         1 <0>         0.0954
     47 H20        -8.8957    6.0184    1.5647 H         1 <0>         0.0946
@<TRIPOS>BOND
     1    1    2 1
     2    1   28 1
     3    1   29 1
     4    1   30 1
     5    2    3 1
     6    2   31 1
     7    2   32 1
     8    3    4 1
     9    3   25 am
    10    4    8 1
    11    4    5 2
    12    5    6 1
    13    6    7 2
    14    6    9 1
    15    7    8 1
    16    7   33 1
    17    9   10 1
    18    9   34 1
    19    9   35 1
    20   10   23 am
    21   10   11 am
    22   11   12 2
    23   11   13 1
    24   13   17 1
    25   13   14 1
    26   13   22 1
    27   14   15 1
    28   14   36 1
    29   14   37 1
    30   15   16 1
    31   15   38 1
    32   15   39 1
    33   16   21 ar
    34   16   17 ar
    35   17   18 ar
    36   18   19 ar
    37   18   40 1
    38   19   20 ar
    39   19   41 1
    40   20   21 ar
    41   20   42 1
    42   21   43 1
    43   22   23 am
    44   22   44 1
    45   23   24 2
    46   25   26 2
    47   25   27 1
    48   27   45 1
    49   27   46 1
    50   27   47 1
@<TRIPOS>MOLECULE
ZINC23007453
   41    43     0     0     0
SMALL
USER_CHARGES
N-[2-(difluoromethylsulfanyl)phenyl]-1,3-dimethyl-2,4-dioxo-pyrido[5,6-e]pyrimidine-6-carboxamide
@<TRIPOS>ATOM
      1 C1         -1.5007    4.8392    2.6819 C.3       1 <0>         0.0794
      2 N1         -1.4025    3.3858    2.5263 N.am      1 <0>        -0.5246
      3 C2         -1.9492    2.5592    3.4881 C.ar      1 <0>         0.4299
      4 C3         -1.8409    1.1647    3.3151 C.ar      1 <0>        -0.2496
      5 C4         -2.3824    0.3088    4.2672 C.ar      1 <0>         0.0960
      6 C5         -3.0214    0.8828    5.3732 C.ar      1 <0>        -0.2307
      7 C6         -3.0880    2.2761    5.4734 C.ar      1 <0>         0.2190
      8 N2         -2.5636    3.0547    4.5510 N.ar      1 <0>        -0.5108
      9 C7         -3.6166    0.0284    6.4197 C.2       1 <0>         0.5776
     10 O1         -3.5538   -1.1822    6.3247 O.2       1 <0>        -0.5065
     11 N3         -4.2296    0.5902    7.4804 N.am      1 <0>        -0.6795
     12 C8         -4.8759   -0.2176    8.4247 C.ar      1 <0>         0.1813
     13 C9         -4.3623   -1.4666    8.7393 C.ar      1 <0>        -0.1066
     14 C10        -4.9994   -2.2605    9.6748 C.ar      1 <0>        -0.0913
     15 C11        -6.1547   -1.8173   10.2925 C.ar      1 <0>        -0.1121
     16 C12        -6.6771   -0.5762    9.9816 C.ar      1 <0>        -0.1025
     17 C13        -6.0417    0.2297    9.0474 C.ar      1 <0>        -0.1238
     18 S1         -6.7055    1.8124    8.6483 S.3       1 <0>        -0.0676
     19 C14        -8.1863    1.9420    9.6880 C.3       1 <0>         0.2621
     20 F1         -9.0703    0.9048    9.3719 F         1 <0>        -0.1905
     21 F2         -7.8200    1.8484   11.0350 F         1 <0>        -0.1916
     22 C15        -1.1499    0.6569    2.1170 C.2       1 <0>         0.5690
     23 O2         -1.0313   -0.5375    1.9232 O.2       1 <0>        -0.4753
     24 N4         -0.6519    1.5558    1.2394 N.am      1 <0>        -0.5582
     25 C16        -0.7769    2.8749    1.4532 C.2       1 <0>         0.7067
     26 O3         -0.3067    3.6422    0.6360 O.2       1 <0>        -0.5207
     27 C17         0.0406    1.0828    0.0381 C.3       1 <0>         0.0723
     28 H1         -2.0412    5.0728    3.6110 H         1 <0>         0.1122
     29 H2         -2.0441    5.2638    1.8249 H         1 <0>         0.0838
     30 H3         -0.4905    5.2722    2.7266 H         1 <0>         0.0836
     31 H4         -2.3122   -0.7634    4.1578 H         1 <0>         0.1725
     32 H5         -3.5801    2.7222    6.3250 H         1 <0>         0.1745
     33 H6         -4.2224    1.6831    7.6046 H         1 <0>         0.4313
     34 H7         -3.4626   -1.8178    8.2560 H         1 <0>         0.1497
     35 H8         -4.5959   -3.2316    9.9209 H         1 <0>         0.1345
     36 H9         -6.6504   -2.4433   11.0198 H         1 <0>         0.1323
     37 H10        -7.5799   -0.2336   10.4654 H         1 <0>         0.1300
     38 H11        -8.8542    2.8160    9.6941 H         1 <0>         0.1651
     39 H12         0.3759    1.9460   -0.5556 H         1 <0>         0.1084
     40 H13        -0.6460    0.4687   -0.5631 H         1 <0>         0.0853
     41 H14         0.9119    0.4786    0.3311 H         1 <0>         0.0851
@<TRIPOS>BOND
     1    1    2 1
     2    1   28 1
     3    1   29 1
     4    1   30 1
     5    2   25 am
     6    2    3 1
     7    3    8 ar
     8    3    4 ar
     9    4    5 ar
    10    4   22 1
    11    5    6 ar
    12    5   31 1
    13    6    7 ar
    14    6    9 1
    15    7    8 ar
    16    7   32 1
    17    9   10 2
    18    9   11 am
    19   11   12 1
    20   11   33 1
    21   12   17 ar
    22   12   13 ar
    23   13   14 ar
    24   13   34 1
    25   14   15 ar
    26   14   35 1
    27   15   16 ar
    28   15   36 1
    29   16   17 ar
    30   16   37 1
    31   17   18 1
    32   18   19 1
    33   19   20 1
    34   19   21 1
    35   19   38 1
    36   22   23 2
    37   22   24 am
    38   24   25 am
    39   24   27 1
    40   25   26 2
    41   27   39 1
    42   27   40 1
    43   27   41 1
@<TRIPOS>MOLECULE
ZINC25251438
   37    38     0     0     0
SMALL
USER_CHARGES
(E)-2-cyano-N-(2,4-dichlorophenyl)-3-(1,3-dimethyl-2,4-dioxo-pyrimidin-5-yl)prop-2-enamide
@<TRIPOS>ATOM
      1 C1          0.2588    3.2010    0.3410 C.3       1 <0>         0.0693
      2 N1         -0.5653    2.6128    1.3999 N.am      1 <0>        -0.5197
      3 C2         -1.9029    2.8412    1.4023 C.2       1 <0>         0.2248
      4 C3         -2.6841    2.2841    2.4056 C.2       1 <0>        -0.2891
      5 C4         -2.0128    1.4582    3.4271 C.2       1 <0>         0.5631
      6 O1         -2.6488    0.9419    4.3264 O.2       1 <0>        -0.4849
      7 N2         -0.6759    1.2920    3.3430 N.am      1 <0>        -0.5518
      8 C5          0.0205    1.8606    2.3444 C.2       1 <0>         0.6914
      9 O2          1.2227    1.6880    2.2950 O.2       1 <0>        -0.5206
     10 C6          0.0202    0.4807    4.3447 C.3       1 <0>         0.0718
     11 C7         -4.0828    2.4978    2.4444 C.2       1 <0>         0.1333
     12 C8         -4.8330    2.3754    1.2899 C.2       1 <0>        -0.1500
     13 C9         -4.2157    1.9228    0.0796 C.1       1 <0>         0.2366
     14 N3         -3.7260    1.5639   -0.8806 N.1       1 <0>        -0.3987
     15 C10        -6.2632    2.7094    1.3045 C.2       1 <0>         0.5837
     16 O3         -6.7878    3.0939    2.3330 O.2       1 <0>        -0.5037
     17 N4         -6.9946    2.5900    0.1788 N.am      1 <0>        -0.6776
     18 C11        -8.3262    3.0204    0.1605 C.ar      1 <0>         0.1736
     19 C12        -8.7536    3.9978    1.0494 C.ar      1 <0>        -0.1096
     20 C13       -10.0680    4.4212    1.0291 C.ar      1 <0>        -0.0792
     21 C14       -10.9595    3.8729    0.1236 C.ar      1 <0>        -0.0450
     22 C15       -10.5374    2.8984   -0.7634 C.ar      1 <0>        -0.0780
     23 C16        -9.2218    2.4745   -0.7511 C.ar      1 <0>        -0.0619
     24 Cl1        -8.6906    1.2570   -1.8688 Cl        1 <0>        -0.0511
     25 Cl2       -12.6108    4.4083    0.1009 Cl        1 <0>        -0.0554
     26 H1         -0.3800    3.7813   -0.3410 H         1 <0>         0.1009
     27 H2          0.7614    2.3996   -0.2203 H         1 <0>         0.0930
     28 H3          1.0137    3.8637    0.7893 H         1 <0>         0.0939
     29 H4         -2.3545    3.4497    0.6328 H         1 <0>         0.1842
     30 H5          1.0959    0.4588    4.1157 H         1 <0>         0.1062
     31 H6         -0.3791   -0.5441    4.3284 H         1 <0>         0.0855
     32 H7         -0.1335    0.9183    5.3421 H         1 <0>         0.0870
     33 H8         -4.5728    2.7613    3.3934 H         1 <0>         0.1786
     34 H9         -6.5450    2.1543   -0.7256 H         1 <0>         0.4376
     35 H10        -8.0585    4.4269    1.7559 H         1 <0>         0.1665
     36 H11       -10.4005    5.1815    1.7204 H         1 <0>         0.1460
     37 H12       -11.2351    2.4721   -1.4689 H         1 <0>         0.1489
@<TRIPOS>BOND
     1    1    2 1
     2    1   26 1
     3    1   27 1
     4    1   28 1
     5    2    8 am
     6    2    3 1
     7    3    4 2
     8    3   29 1
     9    4    5 1
    10    4   11 1
    11    5    6 2
    12    5    7 am
    13    7    8 am
    14    7   10 1
    15    8    9 2
    16   10   30 1
    17   10   31 1
    18   10   32 1
    19   11   12 2
    20   11   33 1
    21   12   13 1
    22   12   15 1
    23   13   14 3
    24   15   16 2
    25   15   17 am
    26   17   18 1
    27   17   34 1
    28   18   23 ar
    29   18   19 ar
    30   19   20 ar
    31   19   35 1
    32   20   21 ar
    33   20   36 1
    34   21   22 ar
    35   21   25 1
    36   22   23 ar
    37   22   37 1
    38   23   24 1
@<TRIPOS>MOLECULE
ZINC25251469
   37    38     0     0     0
SMALL
USER_CHARGES
(E)-2-cyano-N-(2,3-dichlorophenyl)-3-(1,3-dimethyl-2,4-dioxo-pyrimidin-5-yl)prop-2-enamide
@<TRIPOS>ATOM
      1 C1          0.2573    3.2036    0.3417 C.3       1 <0>         0.0693
      2 N1         -0.5660    2.6144    1.4006 N.am      1 <0>        -0.5197
      3 C2         -1.9039    2.8411    1.4031 C.2       1 <0>         0.2248
      4 C3         -2.6844    2.2826    2.4061 C.2       1 <0>        -0.2890
      5 C4         -2.0121    1.4567    3.4270 C.2       1 <0>         0.5631
      6 O1         -2.6475    0.9387    4.3257 O.2       1 <0>        -0.4849
      7 N2         -0.6749    1.2930    3.3433 N.am      1 <0>        -0.5518
      8 C5          0.0208    1.8628    2.3450 C.2       1 <0>         0.6915
      9 O2          1.2232    1.6920    2.2957 O.2       1 <0>        -0.5206
     10 C6          0.0223    0.4829    4.3452 C.3       1 <0>         0.0718
     11 C7         -4.0833    2.4950    2.4453 C.2       1 <0>         0.1332
     12 C8         -4.8336    2.3726    1.2908 C.2       1 <0>        -0.1496
     13 C9         -4.2161    1.9216    0.0800 C.1       1 <0>         0.2364
     14 N3         -3.7262    1.5638   -0.8804 N.1       1 <0>        -0.3983
     15 C10        -6.2641    2.7053    1.3059 C.2       1 <0>         0.5843
     16 O3         -6.7888    3.0886    2.3347 O.2       1 <0>        -0.5036
     17 N4         -6.9956    2.5860    0.1802 N.am      1 <0>        -0.6773
     18 C11        -8.3271    3.0150    0.1624 C.ar      1 <0>         0.1803
     19 C12        -8.7554    3.9916    1.0522 C.ar      1 <0>        -0.1186
     20 C13       -10.0703    4.4139    1.0325 C.ar      1 <0>        -0.0770
     21 C14       -10.9613    3.8658    0.1281 C.ar      1 <0>        -0.1185
     22 C15       -10.5392    2.8925   -0.7603 C.ar      1 <0>        -0.0088
     23 C16        -9.2223    2.4690   -0.7492 C.ar      1 <0>        -0.0711
     24 Cl1        -8.6905    1.2532   -1.8684 Cl        1 <0>        -0.0434
     25 Cl2       -11.6613    2.2072   -1.8939 Cl        1 <0>        -0.0423
     26 H1         -0.3822    3.7833   -0.3402 H         1 <0>         0.1009
     27 H2          0.7608    2.4028   -0.2197 H         1 <0>         0.0930
     28 H3          1.0114    3.8672    0.7900 H         1 <0>         0.0939
     29 H4         -2.3563    3.4494    0.6338 H         1 <0>         0.1842
     30 H5          1.0981    0.4630    4.1166 H         1 <0>         0.1062
     31 H6         -0.3751   -0.5427    4.3286 H         1 <0>         0.0855
     32 H7         -0.1326    0.9201    5.3426 H         1 <0>         0.0870
     33 H8         -4.5734    2.7575    3.3945 H         1 <0>         0.1785
     34 H9         -6.5457    2.1513   -0.7246 H         1 <0>         0.4374
     35 H10        -8.0608    4.4204    1.7593 H         1 <0>         0.1629
     36 H11       -10.4032    5.1731    1.7247 H         1 <0>         0.1453
     37 H12       -11.9890    4.1978    0.1154 H         1 <0>         0.1449
@<TRIPOS>BOND
     1    1    2 1
     2    1   26 1
     3    1   27 1
     4    1   28 1
     5    2    8 am
     6    2    3 1
     7    3    4 2
     8    3   29 1
     9    4    5 1
    10    4   11 1
    11    5    6 2
    12    5    7 am
    13    7    8 am
    14    7   10 1
    15    8    9 2
    16   10   30 1
    17   10   31 1
    18   10   32 1
    19   11   12 2
    20   11   33 1
    21   12   13 1
    22   12   15 1
    23   13   14 3
    24   15   16 2
    25   15   17 am
    26   17   18 1
    27   17   34 1
    28   18   23 ar
    29   18   19 ar
    30   19   20 ar
    31   19   35 1
    32   20   21 ar
    33   20   36 1
    34   21   22 ar
    35   21   37 1
    36   22   23 ar
    37   22   25 1
    38   23   24 1
@<TRIPOS>MOLECULE
ZINC27528281
   43    47     0     0     0
SMALL
USER_CHARGES
4-(2,5-dioxopyrrolidin-1-yl)-N-(7-methylthiazolo[5,4-g][1,3]benzothiazol-2-yl)benzamide
@<TRIPOS>ATOM
      1 C1         -1.1670   -0.9514   -0.1784 C.3       1 <0>        -0.0756
      2 C2          0.0017   -0.0011   -0.1321 C.2       1 <0>         0.1420
      3 N1          1.2739   -0.2826   -0.1394 N.2       1 <0>        -0.5114
      4 C3          2.2303    0.6684   -0.0946 C.ar      1 <0>         0.1408
      5 C4          1.7334    1.9913   -0.0393 C.ar      1 <0>        -0.1474
      6 S1         -0.0217    1.7333   -0.0572 S.3       1 <0>         0.0582
      7 C5          2.5718    3.0820    0.0117 C.ar      1 <0>        -0.0516
      8 C6          3.9242    2.9327    0.0106 C.ar      1 <0>        -0.0438
      9 C7          4.5050    1.6371   -0.0432 C.ar      1 <0>         0.1222
     10 C8          3.6281    0.5427   -0.0947 C.ar      1 <0>        -0.1114
     11 S2          4.7396   -0.8418   -0.1503 S.3       1 <0>         0.0491
     12 C9          6.2612    0.0948   -0.1039 C.2       1 <0>         0.3724
     13 N2          5.8241    1.3311   -0.0517 N.2       1 <0>        -0.5071
     14 N3          7.5677   -0.3663   -0.1189 N.am      1 <0>        -0.6280
     15 C10         8.5918    0.5089   -0.0770 C.2       1 <0>         0.5602
     16 O1          8.3691    1.7030   -0.0262 O.2       1 <0>        -0.4590
     17 C11         9.9834    0.0177   -0.0930 C.ar      1 <0>        -0.1223
     18 C12        10.2412   -1.3548   -0.1455 C.ar      1 <0>        -0.0729
     19 C13        11.5410   -1.8092   -0.1650 C.ar      1 <0>        -0.1043
     20 C14        12.5963   -0.9046   -0.1219 C.ar      1 <0>         0.1402
     21 C15        12.3436    0.4617   -0.0642 C.ar      1 <0>        -0.1037
     22 C16        11.0465    0.9237   -0.0497 C.ar      1 <0>        -0.0402
     23 N4         13.9145   -1.3699   -0.1360 N.am      1 <0>        -0.5366
     24 C17        14.7452   -1.1620   -1.1650 C.2       1 <0>         0.5226
     25 O2         14.4674   -0.5634   -2.1819 O.2       1 <0>        -0.4660
     26 C18        16.0870   -1.7898   -0.8564 C.3       1 <0>        -0.1583
     27 C19        15.8824   -2.4116    0.5401 C.3       1 <0>        -0.1547
     28 C20        14.4483   -2.0650    0.8761 C.2       1 <0>         0.5300
     29 O3         13.8738   -2.3689    1.8993 O.2       1 <0>        -0.4650
     30 H1         -0.7966   -1.9863   -0.2215 H         1 <0>         0.0998
     31 H2         -1.7747   -0.7420   -1.0711 H         1 <0>         0.0977
     32 H3         -1.7827   -0.8196    0.7236 H         1 <0>         0.0977
     33 H4          2.1483    4.0746    0.0529 H         1 <0>         0.1468
     34 H5          4.5602    3.8046    0.0512 H         1 <0>         0.1508
     35 H6          7.7691   -1.4467   -0.1650 H         1 <0>         0.4553
     36 H7          9.4221   -2.0580   -0.1749 H         1 <0>         0.1364
     37 H8         11.7410   -2.8696   -0.2094 H         1 <0>         0.1377
     38 H9         13.1657    1.1612   -0.0304 H         1 <0>         0.1383
     39 H10        10.8510    1.9849   -0.0052 H         1 <0>         0.1501
     40 H11        16.3226   -2.5455   -1.6202 H         1 <0>         0.1268
     41 H12        16.8648   -1.0120   -0.8580 H         1 <0>         0.1271
     42 H13        16.0484   -3.4976    0.4858 H         1 <0>         0.1287
     43 H14        16.5970   -1.9664    1.2480 H         1 <0>         0.1286
@<TRIPOS>BOND
     1    1    2 1
     2    1   30 1
     3    1   31 1
     4    1   32 1
     5    2    6 1
     6    2    3 2
     7    3    4 1
     8    4   10 ar
     9    4    5 ar
    10    5    6 1
    11    5    7 ar
    12    7    8 ar
    13    7   33 1
    14    8    9 ar
    15    8   34 1
    16    9   13 1
    17    9   10 ar
    18   10   11 1
    19   11   12 1
    20   12   13 2
    21   12   14 1
    22   14   15 am
    23   14   35 1
    24   15   16 2
    25   15   17 1
    26   17   22 ar
    27   17   18 ar
    28   18   19 ar
    29   18   36 1
    30   19   20 ar
    31   19   37 1
    32   20   21 ar
    33   20   23 1
    34   21   22 ar
    35   21   38 1
    36   22   39 1
    37   23   28 am
    38   23   24 am
    39   24   25 2
    40   24   26 1
    41   26   27 1
    42   26   40 1
    43   26   41 1
    44   27   28 1
    45   27   42 1
    46   27   43 1
    47   28   29 2
@<TRIPOS>MOLECULE
ZINC32870533
   46    49     0     0     0
SMALL
USER_CHARGES
6-(2,5-dimethyl-3-thienyl)-N-[(3S)-1,1-dioxothiolan-3-yl]-3-methyl-isoxazolo[5,4-b]pyridine-4-carboxamide
@<TRIPOS>ATOM
      1 C1         -7.0713    6.5418    2.4619 C.3       1 <0>        -0.0749
      2 C2         -5.6510    6.4689    1.9634 C.2       1 <0>        -0.1579
      3 C3         -4.9051    5.3765    1.6866 C.2       1 <0>        -0.1381
      4 C4         -3.6007    5.5791    1.2381 C.2       1 <0>        -0.1275
      5 C5         -3.1573    6.8631    1.0941 C.2       1 <0>        -0.1031
      6 S1         -4.5299    7.8022    1.5828 S.3       1 <0>         0.1206
      7 C6         -1.8079    7.3444    0.6266 C.3       1 <0>        -0.0670
      8 C7         -2.7205    4.4318    0.9200 C.ar      1 <0>         0.2751
      9 C8         -3.2077    3.1302    1.0786 C.ar      1 <0>        -0.1704
     10 C9         -2.3777    2.0558    0.7783 C.ar      1 <0>         0.0013
     11 C10        -1.0735    2.3364    0.3181 C.ar      1 <0>        -0.2126
     12 C11         0.0607    1.5053   -0.0802 C.2       1 <0>         0.1587
     13 N1          1.0291    2.3047   -0.4119 N.2       1 <0>        -0.2753
     14 O1          0.6147    3.6465   -0.2546 O.3       1 <0>        -0.0799
     15 C12        -0.6580    3.6729    0.1911 C.ar      1 <0>         0.3043
     16 N2         -1.4883    4.6594    0.4908 N.ar      1 <0>        -0.4638
     17 C13         0.0976   -0.0010   -0.1073 C.3       1 <0>        -0.0750
     18 C14        -2.8497    0.6612    0.9302 C.2       1 <0>         0.5605
     19 O2         -2.0731   -0.2623    0.7856 O.2       1 <0>        -0.5116
     20 N3         -4.1408    0.4155    1.2288 N.am      1 <0>        -0.7235
     21 C15        -4.6080   -0.9648    1.3792 C.3       1 <0>         0.1453
     22 H1         -4.0469   -1.5741    0.6554 H         1 <0>         0.1171
     23 C16        -4.3264   -1.4458    2.8123 C.3       1 <0>        -0.1506
     24 C17        -5.1016   -2.7753    3.0381 C.3       1 <0>        -0.5769
     25 S2         -6.6926   -2.3852    2.1946 S.o2      1 <0>         2.3921
     26 O3         -7.6039   -1.8566    3.1481 O.2       1 <0>        -0.9276
     27 O4         -7.0798   -3.4971    1.3990 O.2       1 <0>        -0.9289
     28 C18        -6.1272   -1.0274    1.0904 C.3       1 <0>        -0.6031
     29 H2         -7.4672    5.5237    2.5912 H         1 <0>         0.0833
     30 H3         -7.6888    7.0853    1.7316 H         1 <0>         0.0793
     31 H4         -7.0946    7.0696    3.4267 H         1 <0>         0.0795
     32 H5         -5.3043    4.3809    1.8123 H         1 <0>         0.1390
     33 H6         -1.7897    8.4442    0.6296 H         1 <0>         0.0686
     34 H7         -1.6209    6.9774   -0.3934 H         1 <0>         0.0916
     35 H8         -1.0283    6.9629    1.3023 H         1 <0>         0.0916
     36 H9         -4.2150    2.9621    1.4300 H         1 <0>         0.1520
     37 H10         1.0869   -0.3374   -0.4510 H         1 <0>         0.0744
     38 H11        -0.6759   -0.3744   -0.7946 H         1 <0>         0.1001
     39 H12        -0.0913   -0.3906    0.9039 H         1 <0>         0.1102
     40 H13        -4.8438    1.2514    1.3596 H         1 <0>         0.4252
     41 H14        -3.2462   -1.6114    2.9379 H         1 <0>         0.1082
     42 H15        -4.6661   -0.6831    3.5285 H         1 <0>         0.0935
     43 H16        -4.5476   -3.6058    2.5761 H         1 <0>         0.1463
     44 H17        -5.2064   -2.9599    4.1174 H         1 <0>         0.1488
     45 H18        -6.5875   -0.0592    1.3368 H         1 <0>         0.1482
     46 H19        -6.2891   -1.2499    0.0254 H         1 <0>         0.1531
@<TRIPOS>BOND
     1    1    2 1
     2    1   29 1
     3    1   30 1
     4    1   31 1
     5    2    6 1
     6    2    3 2
     7    3    4 1
     8    3   32 1
     9    4    5 2
    10    4    8 1
    11    5    6 1
    12    5    7 1
    13    7   33 1
    14    7   34 1
    15    7   35 1
    16    8   16 ar
    17    8    9 ar
    18    9   10 ar
    19    9   36 1
    20   10   11 ar
    21   10   18 1
    22   11   15 ar
    23   11   12 1
    24   12   13 2
    25   12   17 1
    26   13   14 1
    27   14   15 1
    28   15   16 ar
    29   17   37 1
    30   17   38 1
    31   17   39 1
    32   18   19 2
    33   18   20 am
    34   20   21 1
    35   20   40 1
    36   21   22 1
    37   21   28 1
    38   21   23 1
    39   23   24 1
    40   23   41 1
    41   23   42 1
    42   24   25 1
    43   24   43 1
    44   24   44 1
    45   25   26 2
    46   25   27 2
    47   25   28 1
    48   28   45 1
    49   28   46 1
@<TRIPOS>MOLECULE
ZINC35485891
   41    45     0     0     0
SMALL
USER_CHARGES

@<TRIPOS>ATOM
      1 C1         -0.0184    1.5028    0.0103 C.3       1 <0>        -0.0610
      2 C2          0.0021   -0.0041    0.0020 C.2       1 <0>         0.0611
      3 N1          0.0098   -0.8457   -1.0129 N.2       1 <0>        -0.2564
      4 N2          0.0280   -2.0961   -0.8483 N.2       1 <0>        -0.2857
      5 C3          0.0406   -2.6423    0.3602 C.2       1 <0>         0.2922
      6 S1          0.0308   -1.1619    1.3675 S.3       1 <0>         0.0457
      7 N3          0.0606   -3.9789    0.7364 N.am      1 <0>        -0.4898
      8 C4          0.0790   -5.1341   -0.1760 C.3       1 <0>         0.2369
      9 H1         -0.8136   -5.1334   -0.8016 H         1 <0>         0.1389
     10 C5          0.0937   -6.3439    0.6995 C.2       1 <0>        -0.2274
     11 C6          0.1051   -7.7730    0.3727 C.2       1 <0>         0.4592
     12 O1          0.2808   -8.1979   -0.7557 O.2       1 <0>        -0.4130
     13 C7         -0.1174   -8.6534    1.5475 C.ar      1 <0>        -0.1827
     14 C8         -0.3323  -10.0205    1.3738 C.ar      1 <0>        -0.0663
     15 C9         -0.5424  -10.8225    2.4757 C.ar      1 <0>         0.0847
     16 C10        -0.5398  -10.2678    3.7504 C.ar      1 <0>        -0.0854
     17 C11        -0.3270   -8.9203    3.9321 C.ar      1 <0>        -0.1002
     18 C12        -0.1093   -8.0891    2.8334 C.ar      1 <0>         0.1315
     19 O2          0.1074   -6.7699    3.0422 O.3       1 <0>        -0.1726
     20 C13         0.0899   -5.9182    1.9982 C.2       1 <0>         0.0967
     21 C14         0.0723   -4.4459    2.0016 C.2       1 <0>         0.5750
     22 O3          0.0662   -3.7523    2.9994 O.2       1 <0>        -0.4431
     23 F1         -0.7513  -12.1477    2.3164 F         1 <0>        -0.1248
     24 C15         1.3160   -5.0976   -1.0360 C.ar      1 <0>        -0.1083
     25 C16         2.5219   -4.6936   -0.4937 C.ar      1 <0>        -0.0826
     26 C17         3.6572   -4.6589   -1.2801 C.ar      1 <0>        -0.1435
     27 C18         3.5866   -5.0303   -2.6149 C.ar      1 <0>         0.1233
     28 C19         2.3754   -5.4357   -3.1566 C.ar      1 <0>        -0.1390
     29 C20         1.2441   -5.4736   -2.3646 C.ar      1 <0>        -0.0549
     30 O4          4.7018   -4.9965   -3.3907 O.3       1 <0>        -0.4977
     31 H2          1.0042    1.8801    0.0026 H         1 <0>         0.0992
     32 H3         -0.5455    1.8639   -0.8728 H         1 <0>         0.1039
     33 H4         -0.5286    1.8543    0.9071 H         1 <0>         0.0933
     34 H5         -0.3346  -10.4483    0.3821 H         1 <0>         0.1610
     35 H6         -0.7072  -10.9019    4.6085 H         1 <0>         0.1597
     36 H7         -0.3283   -8.5050    4.9290 H         1 <0>         0.1611
     37 H8          2.5764   -4.4046    0.5455 H         1 <0>         0.1146
     38 H9          4.5988   -4.3425   -0.8562 H         1 <0>         0.1315
     39 H10         2.3178   -5.7253   -4.1954 H         1 <0>         0.1362
     40 H11         0.3019   -5.7934   -2.7847 H         1 <0>         0.1346
     41 H12         5.2050   -5.8223   -3.3923 H         1 <0>         0.3942
@<TRIPOS>BOND
     1    1    2 1
     2    1   31 1
     3    1   32 1
     4    1   33 1
     5    2    6 1
     6    2    3 2
     7    3    4 1
     8    4    5 2
     9    5    6 1
    10    5    7 1
    11    7   21 am
    12    7    8 1
    13    8    9 1
    14    8   10 1
    15    8   24 1
    16   10   20 2
    17   10   11 1
    18   11   12 2
    19   11   13 1
    20   13   18 ar
    21   13   14 ar
    22   14   15 ar
    23   14   34 1
    24   15   16 ar
    25   15   23 1
    26   16   17 ar
    27   16   35 1
    28   17   18 ar
    29   17   36 1
    30   18   19 1
    31   19   20 1
    32   20   21 1
    33   21   22 2
    34   24   29 ar
    35   24   25 ar
    36   25   26 ar
    37   25   37 1
    38   26   27 ar
    39   26   38 1
    40   27   28 ar
    41   27   30 1
    42   28   29 ar
    43   28   39 1
    44   29   40 1
    45   30   41 1
@<TRIPOS>MOLECULE
ZINC35485936
   41    45     0     0     0
SMALL
USER_CHARGES

@<TRIPOS>ATOM
      1 C1         -0.0184    1.5028    0.0103 C.3       1 <0>        -0.0610
      2 C2          0.0021   -0.0041    0.0020 C.2       1 <0>         0.0604
      3 N1          0.0098   -0.8457   -1.0129 N.2       1 <0>        -0.2571
      4 N2          0.0280   -2.0961   -0.8483 N.2       1 <0>        -0.2875
      5 C3          0.0406   -2.6423    0.3602 C.2       1 <0>         0.2931
      6 S1          0.0308   -1.1619    1.3675 S.3       1 <0>         0.0476
      7 N3          0.0606   -3.9789    0.7364 N.am      1 <0>        -0.4897
      8 C4          0.0790   -5.1341   -0.1760 C.3       1 <0>         0.2359
      9 H1          0.9743   -5.1084   -0.7971 H         1 <0>         0.1409
     10 C5          0.0937   -6.3439    0.6995 C.2       1 <0>        -0.2269
     11 C6          0.1051   -7.7730    0.3727 C.2       1 <0>         0.4587
     12 O1          0.2808   -8.1979   -0.7557 O.2       1 <0>        -0.4125
     13 C7         -0.1174   -8.6534    1.5475 C.ar      1 <0>        -0.1815
     14 C8         -0.3323  -10.0205    1.3738 C.ar      1 <0>        -0.0661
     15 C9         -0.5424  -10.8225    2.4757 C.ar      1 <0>         0.0852
     16 C10        -0.5398  -10.2678    3.7504 C.ar      1 <0>        -0.0856
     17 C11        -0.3270   -8.9203    3.9321 C.ar      1 <0>        -0.1000
     18 C12        -0.1093   -8.0891    2.8334 C.ar      1 <0>         0.1308
     19 O2          0.1074   -6.7699    3.0422 O.3       1 <0>        -0.1722
     20 C13         0.0899   -5.9182    1.9982 C.2       1 <0>         0.0969
     21 C14         0.0723   -4.4459    2.0016 C.2       1 <0>         0.5758
     22 O3          0.0662   -3.7523    2.9994 O.2       1 <0>        -0.4425
     23 F1         -0.7513  -12.1477    2.3164 F         1 <0>        -0.1247
     24 C15        -1.1542   -5.1322   -1.0422 C.ar      1 <0>        -0.0836
     25 C16        -2.3721   -4.7513   -0.5093 C.ar      1 <0>        -0.1098
     26 C17        -3.5052   -4.7484   -1.3013 C.ar      1 <0>        -0.0990
     27 C18        -3.4234   -5.1268   -2.6276 C.ar      1 <0>        -0.1296
     28 C19        -2.2029   -5.5093   -3.1645 C.ar      1 <0>         0.1134
     29 C20        -1.0660   -5.5054   -2.3691 C.ar      1 <0>        -0.1021
     30 O4         -2.1198   -5.8819   -4.4688 O.3       1 <0>        -0.4952
     31 H2          1.0042    1.8801    0.0026 H         1 <0>         0.0993
     32 H3         -0.5455    1.8639   -0.8728 H         1 <0>         0.1037
     33 H4         -0.5286    1.8543    0.9071 H         1 <0>         0.0932
     34 H5         -0.3346  -10.4483    0.3821 H         1 <0>         0.1611
     35 H6         -0.7072  -10.9019    4.6085 H         1 <0>         0.1598
     36 H7         -0.3283   -8.5050    4.9290 H         1 <0>         0.1612
     37 H8         -2.4383   -4.4558    0.5274 H         1 <0>         0.1137
     38 H9         -4.4552   -4.4506   -0.8828 H         1 <0>         0.1310
     39 H10        -4.3090   -5.1251   -3.2457 H         1 <0>         0.1335
     40 H11        -0.1137   -5.7983   -2.7860 H         1 <0>         0.1371
     41 H12        -1.9340   -5.1519   -5.0752 H         1 <0>         0.3943
@<TRIPOS>BOND
     1    1    2 1
     2    1   31 1
     3    1   32 1
     4    1   33 1
     5    2    6 1
     6    2    3 2
     7    3    4 1
     8    4    5 2
     9    5    6 1
    10    5    7 1
    11    7   21 am
    12    7    8 1
    13    8    9 1
    14    8   10 1
    15    8   24 1
    16   10   20 2
    17   10   11 1
    18   11   12 2
    19   11   13 1
    20   13   18 ar
    21   13   14 ar
    22   14   15 ar
    23   14   34 1
    24   15   16 ar
    25   15   23 1
    26   16   17 ar
    27   16   35 1
    28   17   18 ar
    29   17   36 1
    30   18   19 1
    31   19   20 1
    32   20   21 1
    33   21   22 2
    34   24   29 ar
    35   24   25 ar
    36   25   26 ar
    37   25   37 1
    38   26   27 ar
    39   26   38 1
    40   27   28 ar
    41   27   39 1
    42   28   29 ar
    43   28   30 1
    44   29   40 1
    45   30   41 1
@<TRIPOS>MOLECULE
ZINC37253280
   31    32     0     0     0
SMALL
USER_CHARGES

@<TRIPOS>ATOM
      1 C1         -0.0167    1.3794    0.0096 C.ar      1 <0>        -0.0246
      2 C2          1.1681    2.0936    0.0021 C.ar      1 <0>        -0.0852
      3 C3          2.3778    1.4292   -0.0134 C.ar      1 <0>        -0.0267
      4 C4          2.4035    0.0328   -0.0212 C.ar      1 <0>        -0.1109
      5 C5          1.2041   -0.6810   -0.0131 C.ar      1 <0>        -0.0213
      6 C6          0.0021   -0.0041    0.0020 C.ar      1 <0>        -0.0404
      7 N1         -1.2707   -0.7597    0.0106 N.pl3     1 <0>         0.0295
      8 O1         -2.3249   -0.1680    0.0243 O.2       1 <0>        -0.1408
      9 O2         -1.2560   -1.9686    0.0040 O.3       1 <0>        -0.1478
     10 C7          3.6950   -0.6859   -0.0384 C.2       1 <0>         0.5518
     11 O3          4.7379   -0.0615   -0.0458 O.2       1 <0>        -0.4843
     12 N2          3.7162   -2.0334   -0.0459 N.am      1 <0>        -0.7091
     13 C8          4.9963   -2.7457   -0.0629 C.3       1 <0>         0.1434
     14 H1          5.7360   -2.1872    0.5107 H         1 <0>         0.1209
     15 C9          5.4798   -2.9102   -1.5133 C.3       1 <0>        -0.1419
     16 C10         6.6468   -3.9254   -1.5686 C.3       1 <0>        -0.5731
     17 S1          6.3021   -5.0159   -0.1283 S.o2      1 <0>         2.3793
     18 O4          7.3683   -4.9011    0.8041 O.2       1 <0>        -0.9258
     19 O5          5.9225   -6.3008   -0.6017 O.2       1 <0>        -0.9282
     20 C11         4.8167   -4.1636    0.5511 C.3       1 <0>        -0.5994
     21 I1          4.1709    2.5126   -0.0261 I         1 <0>         0.0472
     22 H2         -0.9605    1.9041    0.0260 H         1 <0>         0.1697
     23 H3          1.1464    3.1734    0.0082 H         1 <0>         0.1639
     24 H4          1.2170   -1.7609   -0.0194 H         1 <0>         0.1619
     25 H5          2.8840   -2.5317   -0.0399 H         1 <0>         0.4058
     26 H6          4.6569   -3.2709   -2.1304 H         1 <0>         0.0914
     27 H7          5.8201   -1.9467   -1.8928 H         1 <0>         0.1051
     28 H8          6.6211   -4.4936   -2.4984 H         1 <0>         0.1467
     29 H9          7.6050   -3.4196   -1.4498 H         1 <0>         0.1445
     30 H10         4.8465   -4.1282    1.6401 H         1 <0>         0.1507
     31 H11         3.8977   -4.6321    0.1989 H         1 <0>         0.1475
@<TRIPOS>BOND
     1    1    6 ar
     2    1    2 ar
     3    1   22 1
     4    2    3 ar
     5    2   23 1
     6    3    4 ar
     7    3   21 1
     8    4    5 ar
     9    4   10 1
    10    5    6 ar
    11    5   24 1
    12    6    7 1
    13    7    8 2
    14    7    9 1
    15   10   11 2
    16   10   12 am
    17   12   13 1
    18   12   25 1
    19   13   14 1
    20   13   20 1
    21   13   15 1
    22   15   16 1
    23   15   26 1
    24   15   27 1
    25   16   17 1
    26   16   28 1
    27   16   29 1
    28   17   18 2
    29   17   19 2
    30   17   20 1
    31   20   30 1
    32   20   31 1
@<TRIPOS>MOLECULE
ZINC38062963
   33    34     0     0     0
SMALL
USER_CHARGES

@<TRIPOS>ATOM
      1 C1         -0.0167    1.3794    0.0096 C.ar      1 <0>        -0.0270
      2 C2          1.1681    2.0936    0.0021 C.ar      1 <0>        -0.0859
      3 C3          2.3778    1.4292   -0.0134 C.ar      1 <0>        -0.0277
      4 C4          2.4035    0.0328   -0.0212 C.ar      1 <0>        -0.1080
      5 C5          1.2041   -0.6810   -0.0131 C.ar      1 <0>        -0.0207
      6 C6          0.0021   -0.0041    0.0020 C.ar      1 <0>        -0.0408
      7 N1         -1.2707   -0.7597    0.0106 N.pl3     1 <0>         0.0303
      8 O1         -2.3249   -0.1680    0.0243 O.2       1 <0>        -0.1428
      9 O2         -1.2560   -1.9686    0.0040 O.3       1 <0>        -0.1486
     10 C7          3.6950   -0.6859   -0.0384 C.2       1 <0>         0.5492
     11 O3          4.7379   -0.0615   -0.0458 O.2       1 <0>        -0.4906
     12 N2          3.7162   -2.0334   -0.0459 N.am      1 <0>        -0.7143
     13 C8          4.9963   -2.7457   -0.0629 C.3       1 <0>         0.1313
     14 C9          4.7405   -4.2542   -0.0684 C.3       1 <0>         0.0396
     15 H1          4.1074   -4.5194    0.7783 H         1 <0>         0.0786
     16 C10         6.0740   -4.9998    0.0364 C.3       1 <0>         0.0338
     17 O4          5.8362   -6.4057   -0.0817 O.3       1 <0>        -0.3741
     18 C11         5.1860   -6.7761   -1.3012 C.3       1 <0>         0.0208
     19 C12         3.8524   -6.0304   -1.4059 C.3       1 <0>         0.0247
     20 O5          4.0888   -4.6243   -1.2871 O.3       1 <0>        -0.3739
     21 I1          4.1709    2.5126   -0.0261 I         1 <0>         0.0456
     22 H2         -0.9605    1.9041    0.0260 H         1 <0>         0.1688
     23 H3          1.1464    3.1734    0.0082 H         1 <0>         0.1631
     24 H4          1.2170   -1.7609   -0.0194 H         1 <0>         0.1611
     25 H5          2.8840   -2.5317   -0.0399 H         1 <0>         0.4034
     26 H6          5.5544   -2.4686   -0.9572 H         1 <0>         0.0858
     27 H7          5.5728   -2.4782    0.8226 H         1 <0>         0.0937
     28 H8          6.7375   -4.6740   -0.7647 H         1 <0>         0.0677
     29 H9          6.5350   -4.7881    1.0012 H         1 <0>         0.1104
     30 H10         5.8196   -6.5100   -2.1473 H         1 <0>         0.0639
     31 H11         5.0037   -7.8507   -1.3051 H         1 <0>         0.1086
     32 H12         3.3915   -6.2421   -2.3707 H         1 <0>         0.1095
     33 H13         3.1890   -6.3562   -0.6048 H         1 <0>         0.0645
@<TRIPOS>BOND
     1    1    6 ar
     2    1    2 ar
     3    1   22 1
     4    2    3 ar
     5    2   23 1
     6    3    4 ar
     7    3   21 1
     8    4    5 ar
     9    4   10 1
    10    5    6 ar
    11    5   24 1
    12    6    7 1
    13    7    8 2
    14    7    9 1
    15   10   11 2
    16   10   12 am
    17   12   13 1
    18   12   25 1
    19   13   14 1
    20   13   26 1
    21   13   27 1
    22   14   15 1
    23   14   20 1
    24   14   16 1
    25   16   17 1
    26   16   28 1
    27   16   29 1
    28   17   18 1
    29   18   19 1
    30   18   30 1
    31   18   31 1
    32   19   20 1
    33   19   32 1
    34   19   33 1
@<TRIPOS>MOLECULE
ZINC39226684
   44    47     0     0     0
SMALL
USER_CHARGES

@<TRIPOS>ATOM
      1 C1          2.5843   -1.8993    0.4920 C.ar      1 <0>        -0.0210
      2 C2          3.5711   -0.9344    0.4569 C.ar      1 <0>        -0.1540
      3 C3          4.6628   -1.0240    1.3094 C.ar      1 <0>         0.1974
      4 C4          4.7461   -2.1030    2.2044 C.ar      1 <0>        -0.2466
      5 C5          3.7445   -3.0748    2.2299 C.ar      1 <0>         0.0041
      6 C6          2.6688   -2.9667    1.3729 C.ar      1 <0>        -0.1384
      7 Br1         1.3062   -4.2777    1.3997 Br        1 <0>        -0.0365
      8 C7          5.9017   -2.1889    3.1148 C.2       1 <0>         0.4031
      9 O1          5.9236   -2.9647    4.0470 O.2       1 <0>        -0.4345
     10 C8          7.0640   -1.2559    2.8242 C.3       1 <0>        -0.1922
     11 C9          6.4665    0.0974    2.4125 C.3       1 <0>         0.1289
     12 O2          5.6320   -0.0801    1.2689 O.3       1 <0>        -0.2922
     13 C10         5.6395    0.6561    3.5720 C.3       1 <0>        -0.1645
     14 C11         5.0257    1.9974    3.1588 C.3       1 <0>         0.1185
     15 N1          6.1005    2.8875    2.6990 N.am      1 <0>        -0.5947
     16 C12         7.0084    2.4126    1.6459 C.3       1 <0>         0.1053
     17 C13         7.6011    1.0672    2.0764 C.3       1 <0>        -0.1217
     18 C14         6.2503    4.1161    3.2325 C.2       1 <0>         0.5848
     19 O3          5.4427    4.5300    4.0428 O.2       1 <0>        -0.5126
     20 C15         7.3874    4.9545    2.8360 C.2       1 <0>         0.0847
     21 N2          7.5984    5.1931    1.5788 N.2       1 <0>        -0.2033
     22 N3          8.6731    5.9861    1.1636 N.am      1 <0>        -0.5614
     23 C16         9.7188    6.2021    1.9856 C.2       1 <0>         0.4975
     24 O4         10.6499    6.8867    1.6187 O.2       1 <0>        -0.5102
     25 C17         9.7266    5.5898    3.3633 C.3       1 <0>        -0.1435
     26 C18         8.2895    5.5308    3.8945 C.3       1 <0>        -0.1060
     27 H1          1.7352   -1.8195   -0.1707 H         1 <0>         0.1465
     28 H2          3.4937   -0.1089   -0.2352 H         1 <0>         0.1494
     29 H3          3.8112   -3.9060    2.9162 H         1 <0>         0.1467
     30 H4          7.6757   -1.1351    3.7183 H         1 <0>         0.1158
     31 H5          7.6685   -1.6577    2.0111 H         1 <0>         0.1190
     32 H6          4.8442   -0.0458    3.8228 H         1 <0>         0.0852
     33 H7          6.2826    0.8026    4.4398 H         1 <0>         0.0947
     34 H8          4.3116    1.8390    2.3507 H         1 <0>         0.0807
     35 H9          4.5198    2.4466    4.0135 H         1 <0>         0.1038
     36 H10         6.4549    2.2872    0.7153 H         1 <0>         0.0902
     37 H11         7.8109    3.1361    1.5017 H         1 <0>         0.0957
     38 H12         8.2289    1.2111    2.9558 H         1 <0>         0.0958
     39 H13         8.2011    0.6575    1.2639 H         1 <0>         0.0969
     40 H14         8.6658    6.3827    0.2784 H         1 <0>         0.4358
     41 H15        10.1409    4.5829    3.3120 H         1 <0>         0.1108
     42 H16        10.3348    6.2011    4.0300 H         1 <0>         0.1233
     43 H17         7.9524    6.5351    4.1512 H         1 <0>         0.1087
     44 H18         8.2569    4.8994    4.7824 H         1 <0>         0.1097
@<TRIPOS>BOND
     1    1    6 ar
     2    1    2 ar
     3    1   27 1
     4    2    3 ar
     5    2   28 1
     6    3   12 1
     7    3    4 ar
     8    4    5 ar
     9    4    8 1
    10    5    6 ar
    11    5   29 1
    12    6    7 1
    13    8    9 2
    14    8   10 1
    15   10   11 1
    16   10   30 1
    17   10   31 1
    18   11   17 1
    19   11   12 1
    20   11   13 1
    21   13   14 1
    22   13   32 1
    23   13   33 1
    24   14   15 1
    25   14   34 1
    26   14   35 1
    27   15   16 1
    28   15   18 am
    29   16   17 1
    30   16   36 1
    31   16   37 1
    32   17   38 1
    33   17   39 1
    34   18   19 2
    35   18   20 1
    36   20   26 1
    37   20   21 2
    38   21   22 1
    39   22   23 am
    40   22   40 1
    41   23   24 2
    42   23   25 1
    43   25   26 1
    44   25   41 1
    45   25   42 1
    46   26   43 1
    47   26   44 1
@<TRIPOS>MOLECULE
ZINC39760786
   45    48     0     0     0
SMALL
USER_CHARGES

@<TRIPOS>ATOM
      1 C1         -0.0187    1.5258    0.0104 C.3       1 <0>        -0.1327
      2 C2          0.0021   -0.0041    0.0020 C.3       1 <0>        -0.0686
      3 H1          0.5189   -0.3805   -0.8807 H         1 <0>         0.1605
      4 C3         -1.3991   -0.5649    0.0893 C.2       1 <0>         0.0669
      5 C4         -1.7037   -1.3207    1.1548 C.2       1 <0>        -0.3169
      6 C5         -0.6447   -1.5465    2.1616 C.2       1 <0>         0.2806
      7 N1         -0.8815   -2.2758    3.2260 N.2       1 <0>        -0.5286
      8 C6         -2.0663   -2.8291    3.4323 C.2       1 <0>         0.4600
      9 N2         -3.0786   -2.6976    2.6093 N.2       1 <0>        -0.5845
     10 C7         -3.0050   -1.9880    1.4784 C.2       1 <0>         0.5523
     11 O1         -3.9664   -1.8864    0.7353 O.2       1 <0>        -0.4449
     12 C8         -2.2617   -3.6539    4.6784 C.3       1 <0>         0.0063
     13 H2         -1.6225   -4.5357    4.6344 H         1 <0>         0.1141
     14 C9         -1.8939   -2.8181    5.9061 C.3       1 <0>        -0.1561
     15 S1         -3.9967   -4.1700    4.7959 S.3       1 <0>        -0.2058
     16 C10        -4.0322   -5.2636    6.2428 C.3       1 <0>         0.3842
     17 H3         -5.0437   -5.6295    6.4192 H         1 <0>         0.1175
     18 N3         -3.5223   -4.5619    7.4329 N.pl3     1 <0>        -0.6352
     19 N4         -2.3909   -5.2707    7.8540 N.2       1 <0>        -0.2720
     20 C11        -2.1568   -6.2883    7.0881 C.2       1 <0>         0.3635
     21 N5         -3.1004   -6.3894    6.0617 N.pl3     1 <0>        -0.6373
     22 C12        -3.1533   -7.4109    5.0129 C.3       1 <0>         0.1233
     23 C13        -1.0369   -7.2236    7.2754 C.2       1 <0>         0.0302
     24 C14        -0.1017   -7.1643    8.2649 C.2       1 <0>        -0.1384
     25 C15         0.7734   -8.2485    8.0609 C.2       1 <0>        -0.2141
     26 C16         0.3367   -8.9100    6.9706 C.2       1 <0>        -0.0157
     27 O2         -0.7600   -8.2920    6.5019 O.3       1 <0>        -0.1688
     28 S2          0.7642   -0.6607    1.5412 S.3       1 <0>         0.0122
     29 C17        -2.4191   -0.2841   -0.9840 C.3       1 <0>        -0.1375
     30 H4          1.0039    1.9031    0.0027 H         1 <0>         0.0875
     31 H5         -0.5459    1.8868   -0.8726 H         1 <0>         0.0895
     32 H6         -0.5289    1.8773    0.9072 H         1 <0>         0.0752
     33 H7         -0.8513   -2.5080    5.8354 H         1 <0>         0.0730
     34 H8         -2.5331   -1.9363    5.9501 H         1 <0>         0.0637
     35 H9         -2.0352   -3.4147    6.8073 H         1 <0>         0.1003
     36 H10        -3.8960   -3.7665    7.8434 H         1 <0>         0.4543
     37 H11        -2.5744   -7.0775    4.1515 H         1 <0>         0.0572
     38 H12        -2.7357   -8.3434    5.3925 H         1 <0>         0.0797
     39 H13        -4.1892   -7.5717    4.7142 H         1 <0>         0.0783
     40 H14        -0.0428   -6.4280    9.0528 H         1 <0>         0.1601
     41 H15         1.6328   -8.5020    8.6639 H         1 <0>         0.1571
     42 H16         0.7908   -9.7934    6.5467 H         1 <0>         0.2108
     43 H17        -2.3606   -1.0558   -1.7516 H         1 <0>         0.1039
     44 H18        -3.4169   -0.2827   -0.5455 H         1 <0>         0.1060
     45 H19        -2.2173    0.6892   -1.4312 H         1 <0>         0.0887
@<TRIPOS>BOND
     1    1    2 1
     2    1   30 1
     3    1   31 1
     4    1   32 1
     5    2    3 1
     6    2   28 1
     7    2    4 1
     8    4    5 2
     9    4   29 1
    10    5   10 1
    11    5    6 1
    12    6    7 2
    13    6   28 1
    14    7    8 1
    15    8    9 2
    16    8   12 1
    17    9   10 1
    18   10   11 2
    19   12   13 1
    20   12   14 1
    21   12   15 1
    22   14   33 1
    23   14   34 1
    24   14   35 1
    25   15   16 1
    26   16   17 1
    27   16   21 1
    28   16   18 1
    29   18   19 1
    30   18   36 1
    31   19   20 2
    32   20   21 1
    33   20   23 1
    34   21   22 1
    35   22   37 1
    36   22   38 1
    37   22   39 1
    38   23   27 1
    39   23   24 2
    40   24   25 1
    41   24   40 1
    42   25   26 2
    43   25   41 1
    44   26   27 1
    45   26   42 1
    46   29   43 1
    47   29   44 1
    48   29   45 1
@<TRIPOS>MOLECULE
ZINC45969894
   48    50     0     0     0
SMALL
USER_CHARGES

@<TRIPOS>ATOM
      1 C1         -1.5122   -2.3648   -2.2481 C.3       1 <0>        -0.1152
      2 C2         -0.7065   -1.8571   -1.0801 C.ar      1 <0>        -0.0628
      3 C3          0.0249   -0.6898   -1.2009 C.ar      1 <0>        -0.1313
      4 C4          0.7652   -0.2204   -0.1314 C.ar      1 <0>        -0.0605
      5 C5          0.7761   -0.9166    1.0614 C.ar      1 <0>        -0.1266
      6 C6          0.0426   -2.0893    1.1859 C.ar      1 <0>         0.1440
      7 C7         -0.7039   -2.5552    0.1116 C.ar      1 <0>        -0.1485
      8 N1          0.0520   -2.7973    2.3928 N.am      1 <0>        -0.6594
      9 C8          0.1502   -2.1344    3.5622 C.2       1 <0>         0.5430
     10 O1          0.1340   -0.9217    3.5751 O.2       1 <0>        -0.5079
     11 C9          0.2800   -2.9001    4.8537 C.3       1 <0>        -0.6619
     12 S1          0.3909   -1.7344    6.2391 S.o2      1 <0>         2.5386
     13 O2          1.6149   -1.0151    6.1769 O.2       1 <0>        -0.9132
     14 O3         -0.8438   -1.0503    6.4032 O.2       1 <0>        -0.9100
     15 C10         0.5374   -2.7479    7.6730 C.ar      1 <0>        -0.6631
     16 C11        -0.6009   -3.1661    8.3407 C.ar      1 <0>        -0.0134
     17 C12        -0.4963   -3.9606    9.4654 C.ar      1 <0>        -0.1221
     18 C13         0.7544   -4.3410    9.9278 C.ar      1 <0>         0.1475
     19 C14         1.9025   -3.9192    9.2544 C.ar      1 <0>         0.0702
     20 C15         1.7872   -3.1263    8.1227 C.ar      1 <0>        -0.0029
     21 N2          2.9908   -4.4513    9.9419 N.am      1 <0>        -0.5401
     22 C16         2.5261   -5.1640   10.9853 C.2       1 <0>         0.6796
     23 O4          3.2171   -5.7603   11.7901 O.2       1 <0>        -0.5410
     24 N3          1.1806   -5.1164   11.0036 N.am      1 <0>        -0.5413
     25 C17         0.3129   -5.7689   11.9872 C.3       1 <0>         0.0950
     26 C18         4.4008   -4.2673    9.5893 C.3       1 <0>         0.0951
     27 C19         1.5612    1.0520   -0.2675 C.3       1 <0>        -0.1168
     28 H1         -2.5159   -1.9417   -2.2084 H         1 <0>         0.0730
     29 H2         -1.0292   -2.0679   -3.1791 H         1 <0>         0.0692
     30 H3         -1.5741   -3.4520   -2.2016 H         1 <0>         0.0670
     31 H4          0.0183   -0.1437   -2.1327 H         1 <0>         0.1251
     32 H5          1.3547   -0.5497    1.8962 H         1 <0>         0.1367
     33 H6         -1.2786   -3.4646    0.2066 H         1 <0>         0.1261
     34 H7         -0.0122   -3.7651    2.3878 H         1 <0>         0.4160
     35 H8         -0.5924   -3.5399    4.9861 H         1 <0>         0.1691
     36 H9          1.1798   -3.5145    4.8229 H         1 <0>         0.1685
     37 H10        -1.5750   -2.8695    7.9806 H         1 <0>         0.1557
     38 H11        -1.3866   -4.2847    9.9839 H         1 <0>         0.1446
     39 H12         2.6728   -2.8017    7.5967 H         1 <0>         0.1518
     40 H13         0.0600   -6.7708   11.6405 H         1 <0>         0.0752
     41 H14         0.8329   -5.8355   12.9428 H         1 <0>         0.0924
     42 H15        -0.5998   -5.1857   12.1100 H         1 <0>         0.0881
     43 H16         4.7884   -3.3814   10.0922 H         1 <0>         0.0754
     44 H17         4.9708   -5.1418    9.9029 H         1 <0>         0.0917
     45 H18         4.4921   -4.1419    8.5104 H         1 <0>         0.0873
     46 H19         0.9421    1.9007    0.0230 H         1 <0>         0.0749
     47 H20         2.4375    1.0032    0.3789 H         1 <0>         0.0687
     48 H21         1.8797    1.1722   -1.3030 H         1 <0>         0.0687
@<TRIPOS>BOND
     1    1    2 1
     2    1   28 1
     3    1   29 1
     4    1   30 1
     5    2    7 ar
     6    2    3 ar
     7    3    4 ar
     8    3   31 1
     9    4    5 ar
    10    4   27 1
    11    5    6 ar
    12    5   32 1
    13    6    7 ar
    14    6    8 1
    15    7   33 1
    16    8    9 am
    17    8   34 1
    18    9   10 2
    19    9   11 1
    20   11   12 1
    21   11   35 1
    22   11   36 1
    23   12   13 2
    24   12   14 2
    25   12   15 1
    26   15   20 ar
    27   15   16 ar
    28   16   17 ar
    29   16   37 1
    30   17   18 ar
    31   17   38 1
    32   18   24 1
    33   18   19 ar
    34   19   20 ar
    35   19   21 1
    36   20   39 1
    37   21   22 am
    38   21   26 1
    39   22   23 2
    40   22   24 am
    41   24   25 1
    42   25   40 1
    43   25   41 1
    44   25   42 1
    45   26   43 1
    46   26   44 1
    47   26   45 1
    48   27   46 1
    49   27   47 1
    50   27   48 1
@<TRIPOS>MOLECULE
ZINC47622876
   37    38     0     0     0
SMALL
USER_CHARGES

@<TRIPOS>ATOM
      1 C1         -0.0632    1.5020    0.0159 C.3       1 <0>        -0.1153
      2 C2         -0.0307   -0.0047    0.0058 C.ar      1 <0>        -0.0915
      3 C3         -0.6216   -0.7006   -1.0329 C.ar      1 <0>        -0.0814
      4 C4         -0.5942   -2.0814   -1.0453 C.ar      1 <0>        -0.1195
      5 C5          0.0281   -2.7714   -0.0133 C.ar      1 <0>         0.1623
      6 C6          0.6214   -2.0697    1.0287 C.ar      1 <0>        -0.1170
      7 C7          0.5948   -0.6879    1.0322 C.ar      1 <0>        -0.0698
      8 Br1         1.4697   -3.0039    2.4371 Br        1 <0>        -0.0407
      9 N1          0.0572   -4.1707   -0.0227 N.am      1 <0>        -0.6515
     10 C8         -0.0419   -4.8390   -1.1889 C.2       1 <0>         0.5480
     11 O1         -0.0553   -4.2298   -2.2377 O.2       1 <0>        -0.4963
     12 C9         -0.1360   -6.3430   -1.1899 C.3       1 <0>        -0.6118
     13 H1          0.4700   -6.7455   -0.3782 H         1 <0>         0.1723
     14 C10        -1.5942   -6.7629   -0.9943 C.3       1 <0>        -0.1410
     15 S1          0.4711   -6.9858   -2.7738 S.o2      1 <0>         2.5614
     16 O2         -0.3482   -6.5202   -3.8374 O.2       1 <0>        -0.8878
     17 O3          1.8853   -6.8638   -2.8418 O.2       1 <0>        -0.8809
     18 C11         0.1725   -8.7209   -2.7027 C.2       1 <0>        -0.3771
     19 N2          0.9900   -9.6283   -2.2424 N.2       1 <0>        -0.1800
     20 N3          0.4479  -10.7901   -2.3426 N.2       1 <0>        -0.2879
     21 C12        -0.7400  -10.6767   -2.8713 C.2       1 <0>         0.1938
     22 N4         -0.9507   -9.3597   -3.1103 N.pl3     1 <0>        -0.4233
     23 C13        -2.1485   -8.7506   -3.6937 C.3       1 <0>         0.0476
     24 H2          0.8129    1.8878   -0.5054 H         1 <0>         0.0755
     25 H3         -0.9665    1.8492   -0.4857 H         1 <0>         0.0714
     26 H4         -0.0595    1.8586    1.0459 H         1 <0>         0.0700
     27 H5         -1.1055   -0.1637   -1.8354 H         1 <0>         0.1370
     28 H6         -1.0566   -2.6240   -1.8565 H         1 <0>         0.1570
     29 H7          1.0595   -0.1414    1.8396 H         1 <0>         0.1395
     30 H8          0.1486   -4.6595    0.8101 H         1 <0>         0.4187
     31 H9         -1.9590   -6.3766   -0.0426 H         1 <0>         0.0962
     32 H10        -2.2001   -6.3604   -1.8060 H         1 <0>         0.0893
     33 H11        -1.6622   -7.8508   -0.9950 H         1 <0>         0.0818
     34 H12        -1.4289  -11.4827   -3.0766 H         1 <0>         0.2351
     35 H13        -2.0431   -8.7079   -4.7778 H         1 <0>         0.1048
     36 H14        -3.0225   -9.3493   -3.4370 H         1 <0>         0.1078
     37 H15        -2.2712   -7.7414   -3.3006 H         1 <0>         0.1032
@<TRIPOS>BOND
     1    1    2 1
     2    1   24 1
     3    1   25 1
     4    1   26 1
     5    2    7 ar
     6    2    3 ar
     7    3    4 ar
     8    3   27 1
     9    4    5 ar
    10    4   28 1
    11    5    6 ar
    12    5    9 1
    13    6    7 ar
    14    6    8 1
    15    7   29 1
    16    9   10 am
    17    9   30 1
    18   10   11 2
    19   10   12 1
    20   12   13 1
    21   12   14 1
    22   12   15 1
    23   14   31 1
    24   14   32 1
    25   14   33 1
    26   15   16 2
    27   15   17 2
    28   15   18 1
    29   18   22 1
    30   18   19 2
    31   19   20 1
    32   20   21 2
    33   21   22 1
    34   21   34 1
    35   22   23 1
    36   23   35 1
    37   23   36 1
    38   23   37 1
@<TRIPOS>MOLECULE
ZINC51330852
   40    44     0     0     0
SMALL
USER_CHARGES

@<TRIPOS>ATOM
      1 C1          3.7883    8.1229    0.3836 C.2       1 <0>        -0.2215
      2 C2          3.4836    6.7470    0.4969 C.2       1 <0>        -0.1693
      3 C3          2.4570    6.6449    1.3600 C.2       1 <0>        -0.0543
      4 O1          2.1256    7.8791    1.7732 O.3       1 <0>        -0.1569
      5 C4          2.9296    8.7794    1.1843 C.2       1 <0>        -0.0198
      6 C5          1.7912    5.3632    1.7901 C.3       1 <0>         0.1699
      7 N1          2.4679    4.8360    2.9777 N.am      1 <0>        -0.5217
      8 C6          3.4876    4.0078    2.8264 C.2       1 <0>         0.5479
      9 O2          3.8794    3.6713    1.7239 O.2       1 <0>        -0.4505
     10 C7          4.1268    3.5124    4.0592 C.2       1 <0>        -0.2429
     11 C8          5.1790    2.6633    4.2096 C.2       1 <0>         0.1269
     12 C9          5.7369    2.4177    5.5404 C.2       1 <0>        -0.2044
     13 C10         6.0359    3.4784    6.3836 C.2       1 <0>         0.0370
     14 C11         6.5734    3.2101    7.6618 C.ar      1 <0>        -0.1315
     15 C12         6.8857    4.2679    8.5332 C.ar      1 <0>        -0.0314
     16 C13         7.4068    4.0049    9.7679 C.ar      1 <0>         0.0075
     17 C14         7.6318    2.6825   10.1741 C.ar      1 <0>         0.1159
     18 C15         7.3288    1.6302    9.3289 C.ar      1 <0>        -0.1601
     19 C16         6.7991    1.8792    8.0680 C.ar      1 <0>         0.2229
     20 N2          6.4995    0.8268    7.2256 N.am      1 <0>        -0.6189
     21 H1          6.6607   -0.0829    7.5211 H         1 <0>         0.4248
     22 C17         5.9817    1.0450    6.0024 C.2       1 <0>         0.5547
     23 O3          5.7202    0.1031    5.2760 O.2       1 <0>        -0.5139
     24 O4          8.1513    2.7001   11.4352 O.3       1 <0>        -0.2975
     25 C18         8.6264    4.0435   11.6385 C.3       1 <0>         0.2109
     26 O5          7.7884    4.8394   10.7802 O.3       1 <0>        -0.3003
     27 S1          3.1392    4.3342    5.3022 S.3       1 <0>         0.0658
     28 C19         2.0404    5.2106    4.2008 C.2       1 <0>         0.2730
     29 S2          0.7550    6.2683    4.6005 S.2       1 <0>        -0.3069
     30 H2          4.5646    8.5622   -0.2253 H         1 <0>         0.1521
     31 H3          3.9795    5.9339   -0.0124 H         1 <0>         0.1526
     32 H4          2.8932    9.8490    1.3294 H         1 <0>         0.2070
     33 H5          0.7448    5.5583    2.0248 H         1 <0>         0.1297
     34 H6          1.8526    4.6333    0.9829 H         1 <0>         0.1353
     35 H7          5.6026    2.1704    3.3470 H         1 <0>         0.1703
     36 H8          5.8601    4.4958    6.0665 H         1 <0>         0.1544
     37 H9          6.7139    5.2889    8.2261 H         1 <0>         0.1552
     38 H10         7.5048    0.6138    9.6488 H         1 <0>         0.1534
     39 H11         8.4996    4.3407   12.6795 H         1 <0>         0.1406
     40 H12         9.6711    4.1292   11.3397 H         1 <0>         0.0938
@<TRIPOS>BOND
     1    1    5 2
     2    1    2 1
     3    1   30 1
     4    2    3 2
     5    2   31 1
     6    3    4 1
     7    3    6 1
     8    4    5 1
     9    5   32 1
    10    6    7 1
    11    6   33 1
    12    6   34 1
    13    7   28 1
    14    7    8 am
    15    8    9 2
    16    8   10 1
    17   10   11 2
    18   10   27 1
    19   11   12 1
    20   11   35 1
    21   12   22 1
    22   12   13 2
    23   13   14 1
    24   13   36 1
    25   14   19 ar
    26   14   15 ar
    27   15   16 ar
    28   15   37 1
    29   16   26 1
    30   16   17 ar
    31   17   18 ar
    32   17   24 1
    33   18   19 ar
    34   18   38 1
    35   19   20 1
    36   20   21 1
    37   20   22 am
    38   22   23 2
    39   24   25 1
    40   25   26 1
    41   25   39 1
    42   25   40 1
    43   27   28 1
    44   28   29 2
@<TRIPOS>MOLECULE
ZINC32339955
   43    46     0     0     0
SMALL
USER_CHARGES

@<TRIPOS>ATOM
      1 C1          0.8560    0.4503   -0.3118 C.ar      1 <0>        -0.1217
      2 C2          2.1321    0.9835   -0.2791 C.ar      1 <0>        -0.0959
      3 C3          3.2033    0.1635    0.0011 C.ar      1 <0>        -0.1018
      4 C4          3.0105   -1.1969    0.2440 C.ar      1 <0>        -0.0658
      5 C5          1.7383   -1.7356    0.1979 C.ar      1 <0>        -0.1077
      6 C6          0.6629   -0.8931   -0.0740 C.ar      1 <0>        -0.0931
      7 C7          1.4197   -3.1877    0.3988 C.3       1 <0>         0.1863
      8 H1          1.3340   -3.6639   -0.5780 H         1 <0>         0.1072
      9 C8          2.4615   -3.9346    1.2129 C.3       1 <0>        -0.1319
     10 C9          3.8076   -3.8818    0.4758 C.3       1 <0>        -0.1027
     11 S1          4.4290   -2.1798    0.6152 S.3       1 <0>        -0.1171
     12 N1          0.1295   -3.2934    1.0846 N.am      1 <0>        -0.7142
     13 C10        -1.0156   -3.2633    0.3744 C.2       1 <0>         0.5624
     14 O1         -0.9778   -3.1484   -0.8353 O.2       1 <0>        -0.5100
     15 C11        -2.3161   -3.3698    1.0657 C.ar      1 <0>        -0.1260
     16 C12        -2.3616   -3.4960    2.4565 C.ar      1 <0>        -0.0254
     17 C13        -3.5762   -3.5951    3.0978 C.ar      1 <0>        -0.1129
     18 C14        -4.7565   -3.5701    2.3628 C.ar      1 <0>         0.2125
     19 C15        -4.7150   -3.4446    0.9789 C.ar      1 <0>        -0.0489
     20 C16        -3.5039   -3.3388    0.3313 C.ar      1 <0>         0.0133
     21 N2         -5.9740   -3.4185    0.2010 N.pl3     1 <0>         0.0217
     22 O2         -6.9023   -4.1199    0.5296 O.2       1 <0>        -0.1253
     23 O3         -6.0741   -2.6958   -0.7630 O.3       1 <0>        -0.1319
     24 N3         -5.9882   -3.6720    3.0175 N.pl3     1 <0>        -0.4392
     25 C17        -6.3819   -4.6780    3.8626 C.2       1 <0>        -0.0395
     26 C18        -7.6317   -4.3817    4.2658 C.2       1 <0>        -0.0084
     27 N4         -7.9967   -3.2280    3.6865 N.2       1 <0>        -0.4654
     28 C19        -7.0193   -2.7898    2.9413 C.2       1 <0>         0.2034
     29 H2          0.0099    1.0885   -0.5195 H         1 <0>         0.1259
     30 H3          2.2876    2.0347   -0.4720 H         1 <0>         0.1313
     31 H4          4.2005    0.5771    0.0325 H         1 <0>         0.1303
     32 H5         -0.3376   -1.2991   -0.0992 H         1 <0>         0.1243
     33 H6          2.5634   -3.4663    2.1919 H         1 <0>         0.0886
     34 H7          2.1531   -4.9729    1.3347 H         1 <0>         0.0951
     35 H8          4.5118   -4.5733    0.9386 H         1 <0>         0.1224
     36 H9          3.6668   -4.1409   -0.5736 H         1 <0>         0.0975
     37 H10         0.0993   -3.3850    2.0498 H         1 <0>         0.4040
     38 H11        -1.4453   -3.5162    3.0279 H         1 <0>         0.1566
     39 H12        -3.6121   -3.6928    4.1727 H         1 <0>         0.1646
     40 H13        -3.4726   -3.2368   -0.7435 H         1 <0>         0.1728
     41 H14        -5.8011   -5.5423    4.1490 H         1 <0>         0.1829
     42 H15        -8.2363   -4.9711    4.9391 H         1 <0>         0.1813
     43 H16        -7.0292   -1.8802    2.3591 H         1 <0>         0.2006
@<TRIPOS>BOND
     1    1    6 ar
     2    1    2 ar
     3    1   29 1
     4    2    3 ar
     5    2   30 1
     6    3    4 ar
     7    3   31 1
     8    4   11 1
     9    4    5 ar
    10    5    6 ar
    11    5    7 1
    12    6   32 1
    13    7    8 1
    14    7    9 1
    15    7   12 1
    16    9   10 1
    17    9   33 1
    18    9   34 1
    19   10   11 1
    20   10   35 1
    21   10   36 1
    22   12   13 am
    23   12   37 1
    24   13   14 2
    25   13   15 1
    26   15   20 ar
    27   15   16 ar
    28   16   17 ar
    29   16   38 1
    30   17   18 ar
    31   17   39 1
    32   18   19 ar
    33   18   24 1
    34   19   20 ar
    35   19   21 1
    36   20   40 1
    37   21   22 2
    38   21   23 1
    39   24   28 1
    40   24   25 1
    41   25   26 2
    42   25   41 1
    43   26   27 1
    44   26   42 1
    45   27   28 2
    46   28   43 1
@<TRIPOS>MOLECULE
ZINC57808529
   39    42     0     0     0
SMALL
USER_CHARGES

@<TRIPOS>ATOM
      1 C1         -0.0184    1.5028    0.0103 C.3       1 <0>        -0.1091
      2 C2          0.0021   -0.0041    0.0020 C.2       1 <0>         0.4203
      3 N1          0.0053   -0.6393   -1.1392 N.2       1 <0>        -0.4797
      4 C3          0.0236   -1.9682   -1.1833 C.2       1 <0>         0.1068
      5 C4          0.0402   -2.7513   -0.0151 C.2       1 <0>        -0.2493
      6 C5          0.0591   -4.1850   -0.2376 C.2       1 <0>        -0.0869
      7 C6          0.0595   -4.6530   -1.4960 C.2       1 <0>        -0.1864
      8 S1          0.0340   -3.1714   -2.4874 S.3       1 <0>         0.1518
      9 C7          0.0357   -2.0227    1.2189 C.2       1 <0>         0.5614
     10 O1          0.0495   -2.6119    2.2858 O.2       1 <0>        -0.5063
     11 N2          0.0224   -0.6773    1.1811 N.am      1 <0>        -0.3241
     12 N3          0.0235    0.0431    2.3827 N.am      1 <0>        -0.5343
     13 C8         -1.0982    0.1148    3.1264 C.2       1 <0>         0.5232
     14 O2         -2.1085   -0.4443    2.7555 O.2       1 <0>        -0.4806
     15 C9         -1.0970    0.8897    4.4189 C.3       1 <0>        -0.0542
     16 C10        -2.4626    0.8135    5.0516 C.2       1 <0>         0.0638
     17 C11        -2.5976    0.3686    6.3306 C.2       1 <0>        -0.1839
     18 S2         -4.3700    0.4908    6.5365 S.3       1 <0>         0.0414
     19 C12        -4.7358    1.1186    4.9028 C.2       1 <0>         0.1521
     20 N4         -3.5223    1.1807    4.3727 N.2       1 <0>        -0.4423
     21 C13        -6.0398    1.4776    4.3059 C.ar      1 <0>         0.2014
     22 C14        -7.2066    1.3428    5.0591 C.ar      1 <0>        -0.1451
     23 C15        -8.4192    1.6834    4.4864 C.ar      1 <0>        -0.0696
     24 C16        -8.4273    2.1481    3.1784 C.ar      1 <0>        -0.1581
     25 C17        -7.2333    2.2571    2.4893 C.ar      1 <0>         0.1074
     26 N5         -6.0911    1.9312    3.0586 N.ar      1 <0>        -0.4444
     27 H1          1.0042    1.8801    0.0026 H         1 <0>         0.1071
     28 H2         -0.5455    1.8639   -0.8728 H         1 <0>         0.1112
     29 H3         -0.5286    1.8543    0.9071 H         1 <0>         0.0924
     30 H4          0.0731   -4.8677    0.5992 H         1 <0>         0.1455
     31 H5          0.0722   -5.6806   -1.8281 H         1 <0>         0.2006
     32 H6          0.8316    0.4902    2.6793 H         1 <0>         0.4271
     33 H7         -0.3580    0.4635    5.0974 H         1 <0>         0.1211
     34 H8         -0.8474    1.9315    4.2178 H         1 <0>         0.1215
     35 H9         -1.8436    0.0340    7.0277 H         1 <0>         0.2056
     36 H10        -7.1638    0.9775    6.0746 H         1 <0>         0.1391
     37 H11        -9.3390    1.5893    5.0445 H         1 <0>         0.1451
     38 H12        -9.3577    2.4218    2.7032 H         1 <0>         0.1434
     39 H13        -7.2370    2.6185    1.4715 H         1 <0>         0.1651
@<TRIPOS>BOND
     1    1    2 1
     2    1   27 1
     3    1   28 1
     4    1   29 1
     5    2   11 1
     6    2    3 2
     7    3    4 1
     8    4    8 1
     9    4    5 2
    10    5    6 1
    11    5    9 1
    12    6    7 2
    13    6   30 1
    14    7    8 1
    15    7   31 1
    16    9   10 2
    17    9   11 am
    18   11   12 1
    19   12   13 am
    20   12   32 1
    21   13   14 2
    22   13   15 1
    23   15   16 1
    24   15   33 1
    25   15   34 1
    26   16   20 1
    27   16   17 2
    28   17   18 1
    29   17   35 1
    30   18   19 1
    31   19   20 2
    32   19   21 1
    33   21   26 ar
    34   21   22 ar
    35   22   23 ar
    36   22   36 1
    37   23   24 ar
    38   23   37 1
    39   24   25 ar
    40   24   38 1
    41   25   26 ar
    42   25   39 1
@<TRIPOS>MOLECULE
ZINC20356280
   52    56     0     0     0
SMALL
USER_CHARGES

@<TRIPOS>ATOM
      1 C1         -0.9886    1.2273    0.2581 C.3       1 <0>        -0.0845
      2 C2         -0.4820   -0.1863    0.1309 C.2       1 <0>         0.0081
      3 C3         -0.6117   -0.9642   -0.9563 C.2       1 <0>        -0.1114
      4 C4          0.0262   -2.2473   -0.6282 C.2       1 <0>        -0.1957
      5 C5          0.4954   -2.1169    0.6685 C.2       1 <0>         0.1104
      6 N1          0.1876   -0.8781    1.1021 N.pl3     1 <0>        -0.3912
      7 C6          0.5052   -0.3724    2.3698 C.ar      1 <0>         0.1071
      8 C7          1.8324   -0.1817    2.7303 C.ar      1 <0>        -0.1070
      9 C8          2.1422    0.3168    3.9805 C.ar      1 <0>        -0.1058
     10 C9          1.1322    0.6260    4.8729 C.ar      1 <0>        -0.1080
     11 C10        -0.1906    0.4368    4.5170 C.ar      1 <0>        -0.1067
     12 C11        -0.5070   -0.0556    3.2660 C.ar      1 <0>        -0.1085
     13 C12         1.2279   -3.1733    1.4550 C.3       1 <0>        -0.0990
     14 C13         0.1379   -3.3855   -1.4672 C.2       1 <0>         0.1369
     15 C14        -0.0254   -3.2558   -2.8314 C.2       1 <0>        -0.2597
     16 C15        -0.0884   -1.9222   -3.4907 C.2       1 <0>         0.4682
     17 N2          0.5762   -0.8790   -3.0655 N.2       1 <0>        -0.6351
     18 N3         -0.9342   -1.8940   -4.6183 N.pl3     1 <0>        -0.4156
     19 C16        -1.1807   -3.0880   -5.2580 C.2       1 <0>         0.4031
     20 N4         -0.7981   -4.2850   -4.8894 N.2       1 <0>        -0.5510
     21 C17        -0.1411   -4.4369   -3.7198 C.2       1 <0>         0.5552
     22 O1          0.3396   -5.5128   -3.4010 O.2       1 <0>        -0.4619
     23 S1         -2.1442   -2.5730   -6.6548 S.3       1 <0>         0.0886
     24 C18        -2.2407   -0.8354   -6.2463 C.2       1 <0>         0.3855
     25 N5         -1.5313   -0.7697   -5.1476 N.2       1 <0>        -0.3509
     26 N6         -2.8976    0.1815   -6.9198 N.pl3     1 <0>        -0.5626
     27 C19        -2.9241    1.5962   -6.5206 C.3       1 <0>         0.1171
     28 C20        -3.7946    2.3467   -7.5504 C.3       1 <0>        -0.1321
     29 C21        -4.6729    1.2177   -8.1514 C.3       1 <0>        -0.1315
     30 C22        -3.6806    0.0254   -8.1592 C.3       1 <0>         0.1101
     31 H1         -0.2172    1.9211   -0.0758 H         1 <0>         0.0709
     32 H2         -1.8796    1.3507   -0.3576 H         1 <0>         0.0786
     33 H3         -1.2355    1.4324    1.2998 H         1 <0>         0.0645
     34 H4         -1.0901   -0.6993   -1.8877 H         1 <0>         0.1406
     35 H5          2.6217   -0.4234    2.0338 H         1 <0>         0.1300
     36 H6          3.1744    0.4650    4.2615 H         1 <0>         0.1336
     37 H7          1.3769    1.0157    5.8499 H         1 <0>         0.1313
     38 H8         -0.9773    0.6785    5.2164 H         1 <0>         0.1333
     39 H9         -1.5405   -0.1983    2.9867 H         1 <0>         0.1295
     40 H10         2.3001   -3.0744    1.2854 H         1 <0>         0.0844
     41 H11         1.0150   -3.0488    2.5167 H         1 <0>         0.0730
     42 H12         0.8985   -4.1608    1.1317 H         1 <0>         0.0902
     43 H13         0.3507   -4.3536   -1.0385 H         1 <0>         0.1474
     44 H14         0.4734   -0.0237   -3.5113 H         1 <0>         0.3515
     45 H15        -3.3600    1.6927   -5.5262 H         1 <0>         0.0750
     46 H16        -1.9122    2.0016   -6.5250 H         1 <0>         0.0748
     47 H17        -4.4140    3.0966   -7.0582 H         1 <0>         0.0911
     48 H18        -3.1733    2.8035   -8.3207 H         1 <0>         0.0833
     49 H19        -5.5328    1.0106   -7.5144 H         1 <0>         0.0836
     50 H20        -4.9899    1.4666   -9.1642 H         1 <0>         0.0954
     51 H21        -3.0271    0.0783   -9.0299 H         1 <0>         0.0826
     52 H22        -4.2237   -0.9197   -8.1482 H         1 <0>         0.0836
@<TRIPOS>BOND
     1    1    2 1
     2    1   31 1
     3    1   32 1
     4    1   33 1
     5    2    6 1
     6    2    3 2
     7    3    4 1
     8    3   34 1
     9    4    5 2
    10    4   14 1
    11    5    6 1
    12    5   13 1
    13    6    7 1
    14    7   12 ar
    15    7    8 ar
    16    8    9 ar
    17    8   35 1
    18    9   10 ar
    19    9   36 1
    20   10   11 ar
    21   10   37 1
    22   11   12 ar
    23   11   38 1
    24   12   39 1
    25   13   40 1
    26   13   41 1
    27   13   42 1
    28   14   15 2
    29   14   43 1
    30   15   21 1
    31   15   16 1
    32   16   17 2
    33   16   18 1
    34   17   44 1
    35   18   25 1
    36   18   19 1
    37   19   20 2
    38   19   23 1
    39   20   21 1
    40   21   22 2
    41   23   24 1
    42   24   25 2
    43   24   26 1
    44   26   30 1
    45   26   27 1
    46   27   28 1
    47   27   45 1
    48   27   46 1
    49   28   29 1
    50   28   47 1
    51   28   48 1
    52   29   30 1
    53   29   49 1
    54   29   50 1
    55   30   51 1
    56   30   52 1
@<TRIPOS>MOLECULE
ZINC62552413
   47    50     0     0     0
SMALL
USER_CHARGES

@<TRIPOS>ATOM
      1 C1          0.0004    1.4463    0.0091 C.3       1 <0>         0.0695
      2 N1          0.0154   -0.0186    0.0021 N.am      1 <0>        -0.5550
      3 C2         -1.1350   -0.8082    0.0031 C.ar      1 <0>         0.2068
      4 C3         -2.4829   -0.4542    0.0109 C.ar      1 <0>        -0.1556
      5 C4         -3.4557   -1.4322    0.0101 C.ar      1 <0>         0.0205
      6 C5         -3.1029   -2.7694    0.0015 C.ar      1 <0>        -0.7039
      7 C6         -1.7664   -3.1287   -0.0063 C.ar      1 <0>         0.0334
      8 C7         -0.7935   -2.1545   -0.0055 C.ar      1 <0>        -0.1622
      9 C8          0.7168   -2.2101   -0.0124 C.3       1 <0>        -0.1147
     10 C9          1.1386   -0.7561   -0.0117 C.2       1 <0>         0.5276
     11 O1          2.2763   -0.3359   -0.0203 O.2       1 <0>        -0.4871
     12 S1         -4.3517   -4.0125    0.0011 S.o2      1 <0>         2.6907
     13 O2         -3.7584   -5.1844    0.5431 O.2       1 <0>        -0.9392
     14 O3         -5.5154   -3.4192    0.5606 O.2       1 <0>        -0.9403
     15 N2         -4.7063   -4.3498   -1.5809 N.pl3     1 <0>        -0.9364
     16 C10        -5.8288   -3.6817   -2.2535 C.3       1 <0>         0.1065
     17 C11        -6.6046   -4.7466   -3.0399 C.3       1 <0>        -0.1254
     18 C12        -5.6906   -5.3272   -4.1187 C.3       1 <0>         0.1529
     19 H1         -5.5007   -4.5671   -4.8765 H         1 <0>         0.0742
     20 C13        -4.3816   -5.7693   -3.5193 C.ar      1 <0>        -0.1066
     21 C14        -3.9366   -5.2732   -2.3026 C.ar      1 <0>         0.1527
     22 C15        -2.7192   -5.6932   -1.7797 C.ar      1 <0>        -0.1349
     23 C16        -1.9458   -6.6044   -2.4710 C.ar      1 <0>        -0.1659
     24 C17        -2.3865   -7.1004   -3.6888 C.ar      1 <0>         0.1100
     25 C18        -3.6072   -6.6880   -4.2075 C.ar      1 <0>        -0.1179
     26 O4         -1.6274   -7.9992   -4.3712 O.3       1 <0>        -0.3162
     27 C19        -0.3884   -8.3876   -3.7745 C.3       1 <0>         0.0254
     28 O5         -6.3329   -6.4494   -4.7270 O.3       1 <0>        -0.5542
     29 H2          1.0243    1.8202    0.0018 H         1 <0>         0.0956
     30 H3         -0.5249    1.8085   -0.8746 H         1 <0>         0.0760
     31 H4         -0.5092    1.8002    0.9052 H         1 <0>         0.0765
     32 H5         -2.7664    0.5879    0.0179 H         1 <0>         0.1403
     33 H6         -4.4987   -1.1521    0.0165 H         1 <0>         0.1510
     34 H7         -1.4870   -4.1719   -0.0133 H         1 <0>         0.1473
     35 H8          1.0844   -2.7179    0.8792 H         1 <0>         0.1316
     36 H9          1.0765   -2.7085   -0.9126 H         1 <0>         0.1302
     37 H10        -6.4820   -3.2212   -1.5123 H         1 <0>         0.1149
     38 H11        -5.4503   -2.9212   -2.9364 H         1 <0>         0.0843
     39 H12        -6.9220   -5.5407   -2.3640 H         1 <0>         0.0862
     40 H13        -7.4778   -4.2915   -3.5072 H         1 <0>         0.0972
     41 H14        -2.3774   -5.3058   -0.8312 H         1 <0>         0.1441
     42 H15        -0.9997   -6.9299   -2.0644 H         1 <0>         0.1381
     43 H16        -3.9485   -7.0757   -5.1560 H         1 <0>         0.1353
     44 H17         0.2436   -7.5091   -3.6449 H         1 <0>         0.0561
     45 H18        -0.5801   -8.8437   -2.8033 H         1 <0>         0.0577
     46 H19         0.1163   -9.1063   -4.4202 H         1 <0>         0.1020
     47 H20        -5.8113   -6.8712   -5.4235 H         1 <0>         0.3809
@<TRIPOS>BOND
     1    1    2 1
     2    1   29 1
     3    1   30 1
     4    1   31 1
     5    2   10 am
     6    2    3 1
     7    3    8 ar
     8    3    4 ar
     9    4    5 ar
    10    4   32 1
    11    5    6 ar
    12    5   33 1
    13    6    7 ar
    14    6   12 1
    15    7    8 ar
    16    7   34 1
    17    8    9 1
    18    9   10 1
    19    9   35 1
    20    9   36 1
    21   10   11 2
    22   12   13 2
    23   12   14 2
    24   12   15 1
    25   15   21 1
    26   15   16 1
    27   16   17 1
    28   16   37 1
    29   16   38 1
    30   17   18 1
    31   17   39 1
    32   17   40 1
    33   18   19 1
    34   18   20 1
    35   18   28 1
    36   20   25 ar
    37   20   21 ar
    38   21   22 ar
    39   22   23 ar
    40   22   41 1
    41   23   24 ar
    42   23   42 1
    43   24   25 ar
    44   24   26 1
    45   25   43 1
    46   26   27 1
    47   27   44 1
    48   27   45 1
    49   27   46 1
    50   28   47 1
@<TRIPOS>MOLECULE
ZINC64000499
   38    40     0     0     0
SMALL
USER_CHARGES

@<TRIPOS>ATOM
      1 C1         -0.0589    1.5184    0.0801 C.3       1 <0>        -0.1757
      2 C2          0.0036   -0.0083    0.0002 C.3       1 <0>         0.0698
      3 H1          0.4332   -0.3047   -0.9567 H         1 <0>         0.1169
      4 C3         -1.3872   -0.5752    0.1237 C.2       1 <0>         0.5253
      5 O1         -1.7238   -1.1394    1.1433 O.2       1 <0>        -0.4767
      6 N1         -2.2571   -0.4551   -0.8988 N.am      1 <0>        -0.5556
      7 C4         -1.8415    0.1252   -2.1845 C.3       1 <0>         0.0809
      8 C5         -2.9280    1.0430   -2.6835 C.2       1 <0>         0.5133
      9 O2         -2.6375    1.9902   -3.3832 O.2       1 <0>        -0.5080
     10 N2         -4.2172    0.8243   -2.3624 N.am      1 <0>        -0.6545
     11 C6         -4.5745   -0.2317   -1.5170 C.ar      1 <0>         0.1306
     12 C7         -3.5872   -0.8854   -0.7725 C.ar      1 <0>         0.1077
     13 C8         -3.9231   -1.9299    0.0691 C.ar      1 <0>        -0.0898
     14 C9         -5.2431   -2.3338    0.1688 C.ar      1 <0>        -0.1178
     15 C10        -6.2227   -1.6963   -0.5699 C.ar      1 <0>        -0.0965
     16 C11        -5.8943   -0.6395   -1.4112 C.ar      1 <0>        -0.1330
     17 O3          0.8178   -0.5080    1.0630 O.3       1 <0>        -0.2990
     18 C12         2.1356   -0.6454    0.8120 C.2       1 <0>         0.5457
     19 O4          2.5805   -0.3489   -0.2794 O.2       1 <0>        -0.4779
     20 C13         3.0338   -1.1537    1.8584 C.2       1 <0>         0.1035
     21 N3          2.7039   -1.5149    3.0648 N.2       1 <0>        -0.3877
     22 C14         3.7365   -1.9374    3.7979 C.2       1 <0>         0.0458
     23 C15         4.8937   -1.8963    3.1252 C.2       1 <0>        -0.1516
     24 C16         4.5312   -1.3695    1.7484 C.3       1 <0>        -0.0950
     25 Br1         6.6070   -2.3943    3.7519 Br        1 <0>         0.0178
     26 H2          0.9317    1.9329   -0.1070 H         1 <0>         0.0866
     27 H3         -0.7569    1.8931   -0.6685 H         1 <0>         0.0840
     28 H4         -0.3960    1.8167    1.0728 H         1 <0>         0.0835
     29 H5         -0.9200    0.6912   -2.0483 H         1 <0>         0.1333
     30 H6         -1.6773   -0.6728   -2.9087 H         1 <0>         0.1201
     31 H7         -4.9060    1.4053   -2.7214 H         1 <0>         0.4178
     32 H8         -3.1585   -2.4288    0.6461 H         1 <0>         0.1524
     33 H9         -5.5086   -3.1493    0.8251 H         1 <0>         0.1341
     34 H10        -7.2506   -2.0175   -0.4890 H         1 <0>         0.1336
     35 H11        -6.6618   -0.1438   -1.9870 H         1 <0>         0.1364
     36 H12         3.6485   -2.2747    4.8201 H         1 <0>         0.1801
     37 H13         4.7601   -2.1059    0.9781 H         1 <0>         0.1501
     38 H14         5.0438   -0.4283    1.5495 H         1 <0>         0.1496
@<TRIPOS>BOND
     1    1    2 1
     2    1   26 1
     3    1   27 1
     4    1   28 1
     5    2    3 1
     6    2    4 1
     7    2   17 1
     8    4    5 2
     9    4    6 am
    10    6   12 1
    11    6    7 1
    12    7    8 1
    13    7   29 1
    14    7   30 1
    15    8    9 2
    16    8   10 am
    17   10   11 1
    18   10   31 1
    19   11   16 ar
    20   11   12 ar
    21   12   13 ar
    22   13   14 ar
    23   13   32 1
    24   14   15 ar
    25   14   33 1
    26   15   16 ar
    27   15   34 1
    28   16   35 1
    29   17   18 1
    30   18   19 2
    31   18   20 1
    32   20   24 1
    33   20   21 2
    34   21   22 1
    35   22   23 2
    36   22   36 1
    37   23   24 1
    38   23   25 1
    39   24   37 1
    40   24   38 1
@<TRIPOS>MOLECULE
ZINC50296398
   49    52     0     0     0
SMALL
USER_CHARGES

@<TRIPOS>ATOM
      1 C1         -0.0184    1.5028    0.0103 C.3       1 <0>        -0.0759
      2 C2          0.0021   -0.0041    0.0020 C.2       1 <0>         0.0957
      3 C3          0.0080   -0.8161   -1.1354 C.2       1 <0>        -0.2671
      4 C4          0.0283   -2.1126   -0.7217 C.2       1 <0>         0.3065
      5 N1          0.0348   -2.1095    0.6308 N.pl3     1 <0>        -0.3839
      6 N2          0.0230   -0.7758    1.0585 N.2       1 <0>        -0.2835
      7 C5          0.0558   -3.2919    1.4955 C.3       1 <0>         0.1702
      8 C6          1.3218   -3.2641    2.3678 C.3       1 <0>        -0.1418
      9 C7          1.1675   -4.3406    3.4799 C.3       1 <0>        -0.5722
     10 S1         -0.6042   -4.1092    3.9296 S.o2      1 <0>         2.3792
     11 O1         -1.2215   -5.3836    4.0477 O.2       1 <0>        -0.9288
     12 O2         -0.6909   -3.1876    5.0078 O.2       1 <0>        -0.9199
     13 C8         -1.2043   -3.2937    2.3942 C.3       1 <0>        -0.6009
     14 N3          0.0398   -3.2397   -1.5433 N.am      1 <0>        -0.6514
     15 C9          0.0313   -3.0968   -2.8834 C.2       1 <0>         0.4963
     16 O3          0.0136   -1.9881   -3.3750 O.2       1 <0>        -0.4735
     17 C10         0.0437   -4.3145   -3.7711 C.3       1 <0>         0.1027
     18 N4          0.0311   -3.8957   -5.1749 N.pl3     1 <0>        -0.4732
     19 C11        -1.0908   -3.7742   -5.9489 C.2       1 <0>         0.0507
     20 C12        -0.7532   -3.3714   -7.1841 C.2       1 <0>        -0.1608
     21 C13         0.7040   -3.2228   -7.2029 C.ar      1 <0>        -0.1004
     22 C14         1.1457   -3.5600   -5.9102 C.ar      1 <0>         0.1093
     23 C15         2.5047   -3.5067   -5.6191 C.ar      1 <0>        -0.1298
     24 C16         3.3990   -3.1225   -6.5944 C.ar      1 <0>        -0.0958
     25 C17         2.9578   -2.7873   -7.8669 C.ar      1 <0>        -0.1459
     26 C18         1.6279   -2.8410   -8.1772 C.ar      1 <0>        -0.0681
     27 C19        -1.6948   -3.1203   -8.3337 C.3       1 <0>        -0.0788
     28 H1          1.0042    1.8801    0.0026 H         1 <0>         0.0807
     29 H2         -0.5455    1.8639   -0.8728 H         1 <0>         0.0810
     30 H3         -0.5286    1.8543    0.9071 H         1 <0>         0.0758
     31 H4         -0.0021   -0.4754   -2.1602 H         1 <0>         0.1739
     32 H5          0.0618   -4.1909    0.8791 H         1 <0>         0.1114
     33 H6          2.1954   -3.4894    1.7561 H         1 <0>         0.1068
     34 H7          1.4346   -2.2796    2.8216 H         1 <0>         0.1088
     35 H8          1.3470   -5.3415    3.0873 H         1 <0>         0.1443
     36 H9          1.8201   -4.1288    4.3269 H         1 <0>         0.1512
     37 H10        -1.5331   -2.2752    2.6007 H         1 <0>         0.1571
     38 H11        -2.0051   -3.8741    1.9360 H         1 <0>         0.1482
     39 H12         0.0539   -4.1263   -1.1501 H         1 <0>         0.4101
     40 H13         0.9427   -4.8985   -3.5742 H         1 <0>         0.1219
     41 H14        -0.8370   -4.9230   -3.5656 H         1 <0>         0.1276
     42 H15        -2.0985   -3.9732   -5.6155 H         1 <0>         0.1669
     43 H16         2.8578   -3.7652   -4.6317 H         1 <0>         0.1131
     44 H17         4.4538   -3.0813   -6.3662 H         1 <0>         0.1247
     45 H18         3.6719   -2.4879   -8.6198 H         1 <0>         0.1231
     46 H19         1.2918   -2.5776   -9.1691 H         1 <0>         0.1223
     47 H20        -2.0180   -2.0794   -8.3179 H         1 <0>         0.0649
     48 H21        -1.1838   -3.3278   -9.2738 H         1 <0>         0.0642
     49 H22        -2.5636   -3.7720   -8.2408 H         1 <0>         0.0632
@<TRIPOS>BOND
     1    1    2 1
     2    1   28 1
     3    1   29 1
     4    1   30 1
     5    2    6 2
     6    2    3 1
     7    3    4 2
     8    3   31 1
     9    4    5 1
    10    4   14 1
    11    5    6 1
    12    5    7 1
    13    7   13 1
    14    7    8 1
    15    7   32 1
    16    8    9 1
    17    8   33 1
    18    8   34 1
    19    9   10 1
    20    9   35 1
    21    9   36 1
    22   10   11 2
    23   10   12 2
    24   10   13 1
    25   13   37 1
    26   13   38 1
    27   14   15 am
    28   14   39 1
    29   15   16 2
    30   15   17 1
    31   17   18 1
    32   17   40 1
    33   17   41 1
    34   18   22 1
    35   18   19 1
    36   19   20 2
    37   19   42 1
    38   20   21 1
    39   20   27 1
    40   21   26 ar
    41   21   22 ar
    42   22   23 ar
    43   23   24 ar
    44   23   43 1
    45   24   25 ar
    46   24   44 1
    47   25   26 ar
    48   25   45 1
    49   26   46 1
    50   27   47 1
    51   27   48 1
    52   27   49 1
@<TRIPOS>MOLECULE
ZINC65132559
   46    48     0     0     0
SMALL
USER_CHARGES

@<TRIPOS>ATOM
      1 C1          0.0668    1.6405   -0.2721 C.3       1 <0>        -0.1552
      2 C2          0.1135    0.1298   -0.0342 C.3       1 <0>         0.0980
      3 N1         -1.2520   -0.3912    0.0655 N.am      1 <0>        -0.5205
      4 C3         -1.7774   -0.5383    1.3449 C.2       1 <0>         0.1201
      5 C4         -2.8366   -1.3950    1.6070 C.2       1 <0>        -0.1454
      6 C5         -3.3348   -1.5230    2.9152 C.2       1 <0>         0.1383
      7 N2         -2.8070   -0.8327    3.8895 N.2       1 <0>        -0.2137
      8 N3         -1.7420    0.0428    3.6553 N.am      1 <0>        -0.3898
      9 C6         -1.2311    0.1949    2.4185 C.2       1 <0>         0.5189
     10 O1         -0.3005    0.9632    2.2278 O.2       1 <0>        -0.5127
     11 C7         -1.1747    0.8052    4.7703 C.3       1 <0>         0.1119
     12 C8         -1.9008    2.1192    4.9013 C.2       1 <0>         0.5027
     13 O2         -2.8033    2.3920    4.1383 O.2       1 <0>        -0.5044
     14 N4         -1.5473    2.9912    5.8662 N.am      1 <0>        -0.6659
     15 C9         -2.2752    4.1732    6.0419 C.ar      1 <0>         0.1448
     16 C10        -2.8454    4.8088    4.9464 C.ar      1 <0>        -0.1178
     17 C11        -3.5632    5.9752    5.1231 C.ar      1 <0>        -0.0737
     18 C12        -3.7142    6.5108    6.3892 C.ar      1 <0>        -0.1290
     19 C13        -3.1474    5.8809    7.4817 C.ar      1 <0>        -0.0989
     20 C14        -2.4339    4.7103    7.3125 C.ar      1 <0>        -0.1159
     21 C15        -1.8226    4.0204    8.5047 C.3       1 <0>        -0.1151
     22 C16        -4.1822    6.6654    3.9351 C.3       1 <0>        -0.1144
     23 S1         -3.5490   -2.3144    0.2806 S.3       1 <0>        -0.0200
     24 C17        -3.2720   -1.2241   -1.1484 C.3       1 <0>        -0.1373
     25 C18        -1.8736   -0.6738   -1.0770 C.2       1 <0>         0.5187
     26 O3         -1.2789   -0.4815   -2.1167 O.2       1 <0>        -0.4913
     27 H1          1.0772    2.0469   -0.2268 H         1 <0>         0.0713
     28 H2         -0.3616    1.8407   -1.2541 H         1 <0>         0.0523
     29 H3         -0.5485    2.1103    0.4953 H         1 <0>         0.0675
     30 H4          0.6269   -0.3531   -0.8657 H         1 <0>         0.0894
     31 H5          0.6494   -0.0757    0.8924 H         1 <0>         0.1038
     32 H6         -4.1571   -2.1941    3.1148 H         1 <0>         0.2071
     33 H7         -1.2848    0.2357    5.6931 H         1 <0>         0.1349
     34 H8         -0.1173    0.9915    4.5823 H         1 <0>         0.1366
     35 H9         -0.7882    2.7995    6.4388 H         1 <0>         0.4128
     36 H10        -2.7273    4.3913    3.9574 H         1 <0>         0.1383
     37 H11        -4.2757    7.4234    6.5248 H         1 <0>         0.1238
     38 H12        -3.2668    6.3019    8.4691 H         1 <0>         0.1272
     39 H13        -0.8147    4.4020    8.6680 H         1 <0>         0.0716
     40 H14        -2.4316    4.2133    9.3878 H         1 <0>         0.0723
     41 H15        -1.7792    2.9469    8.3206 H         1 <0>         0.0630
     42 H16        -5.1909    6.2833    3.7778 H         1 <0>         0.0716
     43 H17        -4.2250    7.7387    4.1200 H         1 <0>         0.0682
     44 H18        -3.5786    6.4733    3.0481 H         1 <0>         0.0655
     45 H19        -3.3964   -1.7917   -2.0706 H         1 <0>         0.1589
     46 H20        -3.9864   -0.4012   -1.1241 H         1 <0>         0.1315
@<TRIPOS>BOND
     1    1    2 1
     2    1   27 1
     3    1   28 1
     4    1   29 1
     5    2    3 1
     6    2   30 1
     7    2   31 1
     8    3   25 am
     9    3    4 1
    10    4    9 1
    11    4    5 2
    12    5    6 1
    13    5   23 1
    14    6    7 2
    15    6   32 1
    16    7    8 1
    17    8    9 am
    18    8   11 1
    19    9   10 2
    20   11   12 1
    21   11   33 1
    22   11   34 1
    23   12   13 2
    24   12   14 am
    25   14   15 1
    26   14   35 1
    27   15   20 ar
    28   15   16 ar
    29   16   17 ar
    30   16   36 1
    31   17   18 ar
    32   17   22 1
    33   18   19 ar
    34   18   37 1
    35   19   20 ar
    36   19   38 1
    37   20   21 1
    38   21   39 1
    39   21   40 1
    40   21   41 1
    41   22   42 1
    42   22   43 1
    43   22   44 1
    44   23   24 1
    45   24   25 1
    46   24   45 1
    47   24   46 1
    48   25   26 2
@<TRIPOS>MOLECULE
ZINC65248782
   47    50     0     0     0
SMALL
USER_CHARGES

@<TRIPOS>ATOM
      1 C1         -0.0173    1.4248    0.0099 C.3       1 <0>         0.0212
      2 O1          0.0021   -0.0041    0.0020 O.3       1 <0>        -0.2997
      3 C2          0.6062   -0.6075   -1.0564 C.ar      1 <0>         0.1602
      4 C3          1.1729    0.1590   -2.0621 C.ar      1 <0>        -0.1942
      5 C4          1.7870   -0.4560   -3.1371 C.ar      1 <0>        -0.0047
      6 C5          1.8372   -1.8356   -3.2121 C.ar      1 <0>        -0.6745
      7 C6          1.2734   -2.6062   -2.2124 C.ar      1 <0>        -0.0751
      8 C7          0.6617   -1.9961   -1.1290 C.ar      1 <0>         0.0830
      9 O2          0.1119   -2.7526   -0.1417 O.3       1 <0>        -0.3035
     10 C8          0.2064   -4.1715   -0.2827 C.3       1 <0>         0.0212
     11 S1          2.6209   -2.6134   -4.5852 S.o2      1 <0>         2.7120
     12 O3          2.0558   -3.9128   -4.6929 O.2       1 <0>        -0.9510
     13 O4          2.5892   -1.6779   -5.6544 O.2       1 <0>        -0.9468
     14 N1          4.2144   -2.8220   -4.1858 N.pl3     1 <0>        -1.0074
     15 C9          5.2938   -1.8540   -4.4352 C.3       1 <0>         0.1196
     16 C10         6.5984   -2.4643   -3.8745 C.3       1 <0>        -0.0956
     17 C11         6.0817   -3.5067   -2.8687 C.3       1 <0>        -0.0687
     18 C12         4.7848   -4.0078   -3.5149 C.3       1 <0>         0.1554
     19 C13         7.0699   -4.6109   -2.6458 C.ar      1 <0>        -0.1316
     20 C14         7.6814   -5.5248   -3.4750 C.ar      1 <0>        -0.0578
     21 C15         8.5738   -6.4450   -2.9543 C.ar      1 <0>        -0.1370
     22 C16         8.8507   -6.4446   -1.5994 C.ar      1 <0>        -0.0785
     23 C17         8.2407   -5.5319   -0.7644 C.ar      1 <0>        -0.1381
     24 C18         7.3406   -4.6024   -1.2795 C.ar      1 <0>         0.1461
     25 N2          6.6058   -3.5960   -0.6475 N.am      1 <0>        -0.6639
     26 C19         5.8381   -2.9064   -1.5155 C.2       1 <0>         0.5408
     27 O5          5.0967   -1.9828   -1.2539 O.2       1 <0>        -0.4769
     28 H1          1.0053    1.8021    0.0021 H         1 <0>         0.0600
     29 H2         -0.5445    1.7859   -0.8732 H         1 <0>         0.0603
     30 H3         -0.5275    1.7763    0.9067 H         1 <0>         0.1060
     31 H4          1.1344    1.2368   -2.0063 H         1 <0>         0.1460
     32 H5          2.2283    0.1425   -3.9203 H         1 <0>         0.1444
     33 H6          1.3136   -3.6837   -2.2735 H         1 <0>         0.1475
     34 H7         -0.2940   -4.4795   -1.2008 H         1 <0>         0.0597
     35 H8          1.2558   -4.4633   -0.3254 H         1 <0>         0.0546
     36 H9         -0.2705   -4.6540    0.5704 H         1 <0>         0.1056
     37 H10         5.3962   -1.6811   -5.5065 H         1 <0>         0.0852
     38 H11         5.0749   -0.9156   -3.9257 H         1 <0>         0.0756
     39 H12         7.1722   -2.9441   -4.6674 H         1 <0>         0.0976
     40 H13         7.1950   -1.7040   -3.3706 H         1 <0>         0.0891
     41 H14         4.0994   -4.3795   -2.7532 H         1 <0>         0.0792
     42 H15         5.0034   -4.7882   -4.2438 H         1 <0>         0.0943
     43 H16         7.4638   -5.5234   -4.5329 H         1 <0>         0.1317
     44 H17         9.0527   -7.1622   -3.6045 H         1 <0>         0.1329
     45 H18         9.5477   -7.1625   -1.1931 H         1 <0>         0.1332
     46 H19         8.4618   -5.5382    0.2927 H         1 <0>         0.1275
     47 H20         6.6431   -3.4149    0.3047 H         1 <0>         0.4151
@<TRIPOS>BOND
     1    1    2 1
     2    1   28 1
     3    1   29 1
     4    1   30 1
     5    2    3 1
     6    3    8 ar
     7    3    4 ar
     8    4    5 ar
     9    4   31 1
    10    5    6 ar
    11    5   32 1
    12    6    7 ar
    13    6   11 1
    14    7    8 ar
    15    7   33 1
    16    8    9 1
    17    9   10 1
    18   10   34 1
    19   10   35 1
    20   10   36 1
    21   11   12 2
    22   11   13 2
    23   11   14 1
    24   14   18 1
    25   14   15 1
    26   15   16 1
    27   15   37 1
    28   15   38 1
    29   16   17 1
    30   16   39 1
    31   16   40 1
    32   17   26 1
    33   17   18 1
    34   17   19 1
    35   18   41 1
    36   18   42 1
    37   19   24 ar
    38   19   20 ar
    39   20   21 ar
    40   20   43 1
    41   21   22 ar
    42   21   44 1
    43   22   23 ar
    44   22   45 1
    45   23   24 ar
    46   23   46 1
    47   24   25 1
    48   25   26 am
    49   25   47 1
    50   26   27 2
@<TRIPOS>MOLECULE
ZINC65248783
   47    50     0     0     0
SMALL
USER_CHARGES

@<TRIPOS>ATOM
      1 C1         -0.0173    1.4248    0.0099 C.3       1 <0>         0.0208
      2 O1          0.0021   -0.0041    0.0020 O.3       1 <0>        -0.2987
      3 C2          0.6062   -0.6075   -1.0564 C.ar      1 <0>         0.1591
      4 C3          1.1729    0.1590   -2.0621 C.ar      1 <0>        -0.1957
      5 C4          1.7870   -0.4560   -3.1371 C.ar      1 <0>        -0.0096
      6 C5          1.8372   -1.8356   -3.2121 C.ar      1 <0>        -0.6789
      7 C6          1.2734   -2.6062   -2.2124 C.ar      1 <0>        -0.0780
      8 C7          0.6617   -1.9961   -1.1290 C.ar      1 <0>         0.0830
      9 O2          0.1119   -2.7526   -0.1417 O.3       1 <0>        -0.3028
     10 C8          0.2064   -4.1715   -0.2827 C.3       1 <0>         0.0198
     11 S1          2.6209   -2.6134   -4.5852 S.o2      1 <0>         2.7109
     12 O3          2.0558   -3.9128   -4.6929 O.2       1 <0>        -0.9492
     13 O4          2.5892   -1.6779   -5.6544 O.2       1 <0>        -0.9441
     14 N1          4.2144   -2.8220   -4.1858 N.pl3     1 <0>        -1.0096
     15 C9          5.2979   -1.8522   -4.4353 C.3       1 <0>         0.1190
     16 C10         6.3896   -2.1929   -3.3872 C.3       1 <0>        -0.0997
     17 C11         6.2771   -3.7267   -3.3154 C.3       1 <0>        -0.0647
     18 C12         4.7847   -4.0040   -3.5167 C.3       1 <0>         0.1530
     19 C13         6.7749   -4.2577   -2.0039 C.ar      1 <0>        -0.1323
     20 C14         6.4166   -4.0406   -0.6921 C.ar      1 <0>        -0.0593
     21 C15         7.0831   -4.6985    0.3264 C.ar      1 <0>        -0.1374
     22 C16         8.1096   -5.5745    0.0236 C.ar      1 <0>        -0.0784
     23 C17         8.4730   -5.7945   -1.2886 C.ar      1 <0>        -0.1370
     24 C18         7.8075   -5.1368   -2.3202 C.ar      1 <0>         0.1474
     25 N2          7.9875   -5.1925   -3.7043 N.am      1 <0>        -0.6623
     26 C19         7.1252   -4.3916   -4.3615 C.2       1 <0>         0.5426
     27 O5          7.0491   -4.2381   -5.5622 O.2       1 <0>        -0.4792
     28 H1          1.0053    1.8021    0.0021 H         1 <0>         0.0604
     29 H2         -0.5445    1.7859   -0.8732 H         1 <0>         0.0608
     30 H3         -0.5275    1.7763    0.9067 H         1 <0>         0.1069
     31 H4          1.1344    1.2368   -2.0063 H         1 <0>         0.1473
     32 H5          2.2283    0.1425   -3.9203 H         1 <0>         0.1461
     33 H6          1.3136   -3.6837   -2.2735 H         1 <0>         0.1509
     34 H7         -0.2940   -4.4795   -1.2008 H         1 <0>         0.0600
     35 H8          1.2558   -4.4633   -0.3254 H         1 <0>         0.0575
     36 H9         -0.2705   -4.6540    0.5704 H         1 <0>         0.1064
     37 H10         5.6906   -1.9741   -5.4447 H         1 <0>         0.0866
     38 H11         4.9365   -0.8343   -4.2888 H         1 <0>         0.0854
     39 H12         7.3762   -1.8891   -3.7372 H         1 <0>         0.0917
     40 H13         6.1615   -1.7385   -2.4230 H         1 <0>         0.0956
     41 H14         4.2992   -4.1564   -2.5527 H         1 <0>         0.0844
     42 H15         4.6534   -4.8861   -4.1435 H         1 <0>         0.0818
     43 H16         5.6143   -3.3565   -0.4581 H         1 <0>         0.1289
     44 H17         6.8027   -4.5281    1.3553 H         1 <0>         0.1321
     45 H18         8.6295   -6.0885    0.8185 H         1 <0>         0.1334
     46 H19         9.2764   -6.4792   -1.5169 H         1 <0>         0.1285
     47 H20         8.6557   -5.7431   -4.1417 H         1 <0>         0.4165
@<TRIPOS>BOND
     1    1    2 1
     2    1   28 1
     3    1   29 1
     4    1   30 1
     5    2    3 1
     6    3    8 ar
     7    3    4 ar
     8    4    5 ar
     9    4   31 1
    10    5    6 ar
    11    5   32 1
    12    6    7 ar
    13    6   11 1
    14    7    8 ar
    15    7   33 1
    16    8    9 1
    17    9   10 1
    18   10   34 1
    19   10   35 1
    20   10   36 1
    21   11   12 2
    22   11   13 2
    23   11   14 1
    24   14   18 1
    25   14   15 1
    26   15   16 1
    27   15   37 1
    28   15   38 1
    29   16   17 1
    30   16   39 1
    31   16   40 1
    32   17   26 1
    33   17   18 1
    34   17   19 1
    35   18   41 1
    36   18   42 1
    37   19   24 ar
    38   19   20 ar
    39   20   21 ar
    40   20   43 1
    41   21   22 ar
    42   21   44 1
    43   22   23 ar
    44   22   45 1
    45   23   24 ar
    46   23   46 1
    47   24   25 1
    48   25   26 am
    49   25   47 1
    50   26   27 2
@<TRIPOS>MOLECULE
ZINC65507072
   51    54     0     0     0
SMALL
USER_CHARGES

@<TRIPOS>ATOM
      1 C1         -0.0727    1.4930   -0.0167 C.3       1 <0>        -0.1091
      2 C2         -0.0452   -0.0138   -0.0244 C.ar      1 <0>         0.1564
      3 C3         -0.0247   -0.6888   -1.2282 C.ar      1 <0>        -0.1591
      4 C4          0.0006   -2.0816   -1.2230 C.ar      1 <0>         0.1951
      5 C5          0.0042   -2.7375    0.0063 C.ar      1 <0>        -0.1988
      6 C6         -0.0173   -1.9895    1.1657 C.ar      1 <0>         0.1355
      7 N1         -0.0356   -0.6709    1.1195 N.ar      1 <0>        -0.4806
      8 N2          0.0214   -2.8035   -2.4219 N.pl3     1 <0>        -0.3317
      9 C7          0.6584   -3.9687   -2.6527 C.2       1 <0>         0.2971
     10 N3          0.4323   -4.3146   -3.8939 N.2       1 <0>        -0.5165
     11 C8         -0.3395   -3.4024   -4.4844 C.2       1 <0>         0.2456
     12 N4         -0.6223   -2.4613   -3.6223 N.2       1 <0>        -0.2927
     13 C9         -0.8149   -3.4514   -5.9137 C.3       1 <0>        -0.0030
     14 C10        -2.3445   -3.4732   -5.9419 C.3       1 <0>        -0.1447
     15 C11        -0.3085   -2.2167   -6.6621 C.3       1 <0>        -0.1448
     16 C12         1.4861   -4.7381   -1.6557 C.3       1 <0>        -0.0362
     17 H1          1.5207   -4.2195   -0.6976 H         1 <0>         0.1248
     18 C13         2.9113   -4.9928   -2.1989 C.3       1 <0>        -0.1390
     19 C14         3.2550   -6.3799   -1.7028 C.2       1 <0>         0.5241
     20 O1          4.3734   -6.8479   -1.6678 O.2       1 <0>        -0.4955
     21 N5          2.1407   -7.0183   -1.3058 N.am      1 <0>        -0.5567
     22 C15         0.9508   -6.1772   -1.4863 C.3       1 <0>         0.1123
     23 C16         2.1175   -8.3173   -0.7864 C.ar      1 <0>         0.1818
     24 C17         0.9308   -8.8502   -0.2986 C.ar      1 <0>        -0.1676
     25 C18         0.9080  -10.1326    0.2142 C.ar      1 <0>        -0.0736
     26 C19         2.0647  -10.8885    0.2437 C.ar      1 <0>        -0.1687
     27 C20         3.2529  -10.3612   -0.2418 C.ar      1 <0>         0.1362
     28 C21         3.2784   -9.0770   -0.7632 C.ar      1 <0>        -0.1836
     29 O2          4.3896  -11.1054   -0.2116 O.3       1 <0>        -0.4961
     30 H2          0.9482    1.8750   -0.0127 H         1 <0>         0.0855
     31 H3         -0.5913    1.8514   -0.9058 H         1 <0>         0.0799
     32 H4         -0.5948    1.8423    0.8741 H         1 <0>         0.0849
     33 H5         -0.0287   -0.1448   -2.1611 H         1 <0>         0.1475
     34 H6          0.0232   -3.8164    0.0511 H         1 <0>         0.1451
     35 H7         -0.0151   -2.4895    2.1229 H         1 <0>         0.1717
     36 H8         -0.4298   -4.3508   -6.3941 H         1 <0>         0.1020
     37 H9         -2.7296   -2.5737   -5.4615 H         1 <0>         0.0631
     38 H10        -2.6883   -3.5086   -6.9757 H         1 <0>         0.0713
     39 H11        -2.7052   -4.3527   -5.4087 H         1 <0>         0.0572
     40 H12         0.7812   -2.2012   -6.6420 H         1 <0>         0.0576
     41 H13        -0.6524   -2.2522   -7.6959 H         1 <0>         0.0714
     42 H14        -0.6937   -1.3173   -6.1817 H         1 <0>         0.0630
     43 H15         2.9147   -4.9656   -3.2886 H         1 <0>         0.1263
     44 H16         3.6098   -4.2595   -1.7959 H         1 <0>         0.1175
     45 H17         0.3074   -6.2395   -0.6086 H         1 <0>         0.0967
     46 H18         0.4042   -6.4838   -2.3781 H         1 <0>         0.1001
     47 H19         0.0258   -8.2613   -0.3199 H         1 <0>         0.1278
     48 H20        -0.0154  -10.5452    0.5930 H         1 <0>         0.1333
     49 H21         2.0439  -11.8907    0.6456 H         1 <0>         0.1310
     50 H22         4.2011   -8.6668   -1.1463 H         1 <0>         0.1618
     51 H23         4.5316  -11.6388   -1.0057 H         1 <0>         0.3941
@<TRIPOS>BOND
     1    1    2 1
     2    1   30 1
     3    1   31 1
     4    1   32 1
     5    2    7 ar
     6    2    3 ar
     7    3    4 ar
     8    3   33 1
     9    4    5 ar
    10    4    8 1
    11    5    6 ar
    12    5   34 1
    13    6    7 ar
    14    6   35 1
    15    8   12 1
    16    8    9 1
    17    9   10 2
    18    9   16 1
    19   10   11 1
    20   11   12 2
    21   11   13 1
    22   13   14 1
    23   13   15 1
    24   13   36 1
    25   14   37 1
    26   14   38 1
    27   14   39 1
    28   15   40 1
    29   15   41 1
    30   15   42 1
    31   16   17 1
    32   16   22 1
    33   16   18 1
    34   18   19 1
    35   18   43 1
    36   18   44 1
    37   19   20 2
    38   19   21 am
    39   21   22 1
    40   21   23 1
    41   22   45 1
    42   22   46 1
    43   23   28 ar
    44   23   24 ar
    45   24   25 ar
    46   24   47 1
    47   25   26 ar
    48   25   48 1
    49   26   27 ar
    50   26   49 1
    51   27   28 ar
    52   27   29 1
    53   28   50 1
    54   29   51 1
@<TRIPOS>MOLECULE
ZINC15003247
   36    38     0     0     0
SMALL
USER_CHARGES

@<TRIPOS>ATOM
      1 C1         -0.0167    1.3819    0.0096 C.ar      1 <0>        -0.0906
      2 C2          1.1651    2.0988    0.0022 C.ar      1 <0>        -0.0892
      3 C3          2.3855    1.4416   -0.0134 C.ar      1 <0>        -0.0386
      4 C4          2.4197    0.0564   -0.0211 C.ar      1 <0>        -0.1290
      5 C5          1.2146   -0.6746   -0.0131 C.ar      1 <0>        -0.1320
      6 C6          0.0021   -0.0041    0.0020 C.ar      1 <0>        -0.0378
      7 C7          1.6061   -2.0999   -0.0250 C.2       1 <0>         0.5778
      8 O1          0.8430   -3.0446   -0.0232 O.2       1 <0>        -0.4469
      9 N1          2.9491   -2.1754   -0.0390 N.am      1 <0>        -0.3786
     10 C8          3.5027   -0.9494   -0.0377 C.2       1 <0>         0.5784
     11 O2          4.6932   -0.7091   -0.0487 O.2       1 <0>        -0.4417
     12 N2          3.6757   -3.3733   -0.0526 N.am      1 <0>        -0.5059
     13 C9          4.2720   -3.7868   -1.1883 C.2       1 <0>         0.5641
     14 O3          4.1795   -3.1206   -2.2007 O.2       1 <0>        -0.4947
     15 C10         5.0387   -5.0509   -1.2026 C.ar      1 <0>        -0.0635
     16 C11         5.1421   -5.8212   -0.0433 C.ar      1 <0>        -0.1041
     17 C12         5.8590   -6.9996   -0.0634 C.ar      1 <0>        -0.0154
     18 C13         6.4748   -7.4185   -1.2295 C.ar      1 <0>        -0.6348
     19 C14         6.3762   -6.6596   -2.3822 C.ar      1 <0>        -0.0145
     20 C15         5.6575   -5.4820   -2.3771 C.ar      1 <0>        -0.0718
     21 S1          7.3890   -8.9246   -1.2465 S.o2      1 <0>         2.4759
     22 O4          8.3418   -8.7588   -2.2876 O.2       1 <0>        -0.8818
     23 O5          7.8100   -9.1084    0.0982 O.2       1 <0>        -0.8827
     24 C16         6.1806  -10.1984   -1.7024 C.3       1 <0>        -0.2081
     25 F1          5.1531  -10.2274   -0.7535 F         1 <0>        -0.1629
     26 F2          5.6450   -9.9039   -2.9609 F         1 <0>        -0.1624
     27 H1         -0.9613    1.9053    0.0260 H         1 <0>         0.1476
     28 H2          1.1375    3.1784    0.0082 H         1 <0>         0.1476
     29 H3          3.3057    2.0069   -0.0199 H         1 <0>         0.1469
     30 H4         -0.9244   -0.5590    0.0082 H         1 <0>         0.1468
     31 H5          3.7495   -3.9049    0.7554 H         1 <0>         0.4290
     32 H6          4.6622   -5.4952    0.8677 H         1 <0>         0.1419
     33 H7          5.9401   -7.5964    0.8330 H         1 <0>         0.1574
     34 H8          6.8592   -6.9921   -3.2892 H         1 <0>         0.1585
     35 H9          5.5772   -4.8930   -3.2788 H         1 <0>         0.1550
     36 H10         6.6724  -11.1706   -1.7353 H         1 <0>         0.1600
@<TRIPOS>BOND
     1    1    6 ar
     2    1    2 ar
     3    1   27 1
     4    2    3 ar
     5    2   28 1
     6    3    4 ar
     7    3   29 1
     8    4   10 1
     9    4    5 ar
    10    5    6 ar
    11    5    7 1
    12    6   30 1
    13    7    8 2
    14    7    9 am
    15    9   10 am
    16    9   12 1
    17   10   11 2
    18   12   13 am
    19   12   31 1
    20   13   14 2
    21   13   15 1
    22   15   20 ar
    23   15   16 ar
    24   16   17 ar
    25   16   32 1
    26   17   18 ar
    27   17   33 1
    28   18   19 ar
    29   18   21 1
    30   19   20 ar
    31   19   34 1
    32   20   35 1
    33   21   22 2
    34   21   23 2
    35   21   24 1
    36   24   25 1
    37   24   26 1
    38   24   36 1
@<TRIPOS>MOLECULE
ZINC66552436
   41    43     0     0     0
SMALL
USER_CHARGES

@<TRIPOS>ATOM
      1 C1         -0.0227    1.5022    0.0107 C.3       1 <0>        -0.0972
      2 C2          0.0076   -0.0044    0.0021 C.2       1 <0>         0.2040
      3 C3          0.0150   -0.8155   -1.1146 C.2       1 <0>        -0.3086
      4 C4          0.0457   -2.1535   -0.6588 C.2       1 <0>         0.1017
      5 N1          0.0558   -2.1367    0.6455 N.2       1 <0>        -0.2786
      6 N2          0.0384   -0.8074    1.0823 N.pl3     1 <0>        -0.3112
      7 C5          0.0486   -0.3848    2.4149 C.ar      1 <0>         0.3516
      8 C6         -0.4260   -1.2316    3.4091 C.ar      1 <0>        -0.1505
      9 C7         -0.4099   -0.8011    4.7245 C.ar      1 <0>        -0.0537
     10 C8          0.0826    0.4670    5.0000 C.ar      1 <0>        -0.1715
     11 C9          0.5384    1.2553    3.9614 C.ar      1 <0>         0.1300
     12 N3          0.5151    0.8156    2.7182 N.ar      1 <0>        -0.4943
     13 C10        -0.0057   -0.3701   -2.5195 C.2       1 <0>         0.6059
     14 O1         -0.0321    0.8173   -2.7806 O.2       1 <0>        -0.5109
     15 N4          0.0047   -1.2789   -3.5148 N.am      1 <0>        -0.6697
     16 C11        -0.1123   -0.8612   -4.8444 C.ar      1 <0>         0.2657
     17 C12        -0.8067   -1.6412   -5.7596 C.ar      1 <0>        -0.2146
     18 C13        -0.9213   -1.2262   -7.0744 C.ar      1 <0>         0.2469
     19 C14        -0.3441   -0.0339   -7.4779 C.ar      1 <0>        -0.7665
     20 C15         0.3492    0.7452   -6.5669 C.ar      1 <0>         0.2467
     21 C16         0.4608    0.3369   -5.2498 C.ar      1 <0>        -0.1915
     22 F1          0.9117    1.9078   -6.9632 F         1 <0>        -0.0982
     23 S1         -0.4915    0.4923   -9.1530 S.o2      1 <0>         2.5017
     24 O2          0.6406    1.3223   -9.3733 O.2       1 <0>        -0.9204
     25 O3         -0.6663   -0.7066   -9.8956 O.2       1 <0>        -0.9213
     26 C17        -2.0106    1.4826   -9.1986 C.3       1 <0>        -0.6476
     27 F2         -1.5963   -1.9849   -7.9653 F         1 <0>        -0.0993
     28 H1          0.9973    1.8863   -0.0011 H         1 <0>         0.0970
     29 H2         -0.5558    1.8599   -0.8702 H         1 <0>         0.1022
     30 H3         -0.5317    1.8503    0.9095 H         1 <0>         0.0824
     31 H4          0.0580   -3.0356   -1.2818 H         1 <0>         0.2008
     32 H5         -0.8027   -2.2123    3.1588 H         1 <0>         0.1487
     33 H6         -0.7727   -1.4372    5.5184 H         1 <0>         0.1487
     34 H7          0.1088    0.8335    6.0156 H         1 <0>         0.1474
     35 H8          0.9226    2.2428    4.1705 H         1 <0>         0.1718
     36 H9          0.0934   -2.2226   -3.3089 H         1 <0>         0.4201
     37 H10        -1.2567   -2.5713   -5.4454 H         1 <0>         0.1578
     38 H11         0.9975    0.9471   -4.5385 H         1 <0>         0.1701
     39 H12        -1.9138    2.3280   -8.5174 H         1 <0>         0.1332
     40 H13        -2.1750    1.8493  -10.2118 H         1 <0>         0.1383
     41 H14        -2.8559    0.8655   -8.8939 H         1 <0>         0.1327
@<TRIPOS>BOND
     1    1    2 1
     2    1   28 1
     3    1   29 1
     4    1   30 1
     5    2    6 1
     6    2    3 2
     7    3    4 1
     8    3   13 1
     9    4    5 2
    10    4   31 1
    11    5    6 1
    12    6    7 1
    13    7   12 ar
    14    7    8 ar
    15    8    9 ar
    16    8   32 1
    17    9   10 ar
    18    9   33 1
    19   10   11 ar
    20   10   34 1
    21   11   12 ar
    22   11   35 1
    23   13   14 2
    24   13   15 am
    25   15   16 1
    26   15   36 1
    27   16   21 ar
    28   16   17 ar
    29   17   18 ar
    30   17   37 1
    31   18   19 ar
    32   18   27 1
    33   19   20 ar
    34   19   23 1
    35   20   21 ar
    36   20   22 1
    37   21   38 1
    38   23   24 2
    39   23   25 2
    40   23   26 1
    41   26   39 1
    42   26   40 1
    43   26   41 1
@<TRIPOS>MOLECULE
ZINC67145236
   53    56     0     0     0
SMALL
USER_CHARGES

@<TRIPOS>ATOM
      1 C1          6.2889   -6.2777   -0.1573 C.3       1 <0>        -0.1504
      2 C2          5.7852   -5.1229    0.7108 C.3       1 <0>        -0.1155
      3 C3          4.2583   -5.1752    0.7934 C.3       1 <0>         0.0768
      4 H1          3.9465   -6.1562    1.1521 H         1 <0>         0.0645
      5 C4          3.7604   -4.0946    1.7599 C.3       1 <0>         0.0659
      6 N1          2.2921   -4.0407    1.6794 N.am      1 <0>        -0.6089
      7 C5          1.6758   -3.9351    0.3474 C.3       1 <0>         0.0765
      8 C6          2.2752   -5.0235   -0.5503 C.3       1 <0>         0.0488
      9 O1          3.7017   -4.9417   -0.5026 O.3       1 <0>        -0.3712
     10 C7          1.5341   -4.0872    2.7929 C.2       1 <0>         0.5647
     11 O2          0.3271   -3.9685    2.7118 O.2       1 <0>        -0.5254
     12 C8          2.1707   -4.2826    4.1130 C.ar      1 <0>        -0.1104
     13 C9          3.2668   -3.5017    4.4845 C.ar      1 <0>        -0.0898
     14 C10         3.8591   -3.6860    5.7170 C.ar      1 <0>        -0.1012
     15 C11         3.3709   -4.6426    6.5876 C.ar      1 <0>        -0.0751
     16 C12         2.2808   -5.4252    6.2272 C.ar      1 <0>         0.1322
     17 C13         1.6747   -5.2435    4.9936 C.ar      1 <0>        -0.0773
     18 N2          1.7907   -6.3925    7.1119 N.am      1 <0>        -0.3667
     19 C14         2.6423   -7.2518    7.7093 C.2       1 <0>         0.5294
     20 O3          3.8250   -7.2230    7.4422 O.2       1 <0>        -0.4925
     21 C15         2.1162   -8.2461    8.7092 C.3       1 <0>        -0.1005
     22 H2          1.7517   -9.1317    8.1886 H         1 <0>         0.1201
     23 C16         3.2179   -8.6448    9.6931 C.3       1 <0>        -0.0692
     24 C17         2.6215   -9.4294   10.8272 C.2       1 <0>        -0.1557
     25 C18         1.3591   -9.4445   11.1153 C.2       1 <0>        -0.1525
     26 C19         0.3113   -8.6840   10.3530 C.3       1 <0>        -0.0715
     27 C20         0.9670   -7.6012    9.4982 C.3       1 <0>        -0.1054
     28 H3          1.3620   -6.8231   10.1513 H         1 <0>         0.1189
     29 C21        -0.0229   -7.0130    8.5289 C.2       1 <0>         0.5307
     30 O4         -1.2087   -7.0297    8.7828 O.2       1 <0>        -0.5040
     31 N3          0.4170   -6.4631    7.3803 N.am      1 <0>        -0.5183
     32 H4          5.8676   -6.1901   -1.1588 H         1 <0>         0.0629
     33 H5          7.3766   -6.2404   -0.2161 H         1 <0>         0.0579
     34 H6          5.9812   -7.2254    0.2846 H         1 <0>         0.0524
     35 H7          6.2064   -5.2105    1.7122 H         1 <0>         0.0802
     36 H8          6.0928   -4.1751    0.2688 H         1 <0>         0.0753
     37 H9          4.0635   -4.3437    2.7769 H         1 <0>         0.1045
     38 H10         4.1792   -3.1286    1.4778 H         1 <0>         0.0839
     39 H11         0.5984   -4.0787    0.4289 H         1 <0>         0.1039
     40 H12         1.8847   -2.9530   -0.0769 H         1 <0>         0.0809
     41 H13         1.9555   -6.0038   -0.1970 H         1 <0>         0.0561
     42 H14         1.9363   -4.8771   -1.5759 H         1 <0>         0.1108
     43 H15         3.6513   -2.7536    3.8070 H         1 <0>         0.1376
     44 H16         4.7072   -3.0813    6.0024 H         1 <0>         0.1430
     45 H17         3.8387   -4.7824    7.5510 H         1 <0>         0.1370
     46 H18         0.8243   -5.8475    4.7135 H         1 <0>         0.1349
     47 H19         3.9595   -9.2564    9.1791 H         1 <0>         0.0923
     48 H20         3.6967   -7.7474   10.0849 H         1 <0>         0.0853
     49 H21         3.2877  -10.0175   11.4410 H         1 <0>         0.1151
     50 H22         1.0392  -10.0418   11.9563 H         1 <0>         0.1152
     51 H23        -0.2306   -9.3681    9.7001 H         1 <0>         0.0849
     52 H24        -0.3851   -8.2240   11.0541 H         1 <0>         0.0925
     53 H25        -0.2205   -6.1178    6.7359 H         1 <0>         0.4266
@<TRIPOS>BOND
     1    1    2 1
     2    1   32 1
     3    1   33 1
     4    1   34 1
     5    2    3 1
     6    2   35 1
     7    2   36 1
     8    3    4 1
     9    3    9 1
    10    3    5 1
    11    5    6 1
    12    5   37 1
    13    5   38 1
    14    6    7 1
    15    6   10 am
    16    7    8 1
    17    7   39 1
    18    7   40 1
    19    8    9 1
    20    8   41 1
    21    8   42 1
    22   10   11 2
    23   10   12 1
    24   12   17 ar
    25   12   13 ar
    26   13   14 ar
    27   13   43 1
    28   14   15 ar
    29   14   44 1
    30   15   16 ar
    31   15   45 1
    32   16   17 ar
    33   16   18 1
    34   17   46 1
    35   18   31 1
    36   18   19 am
    37   19   20 2
    38   19   21 1
    39   21   22 1
    40   21   27 1
    41   21   23 1
    42   23   24 1
    43   23   47 1
    44   23   48 1
    45   24   25 2
    46   24   49 1
    47   25   26 1
    48   25   50 1
    49   26   27 1
    50   26   51 1
    51   26   52 1
    52   27   28 1
    53   27   29 1
    54   29   30 2
    55   29   31 am
    56   31   53 1
@<TRIPOS>MOLECULE
ZINC02206027
   51    54     0     0     0
SMALL
USER_CHARGES
N-(2-dimethylaminoethyl)-dimethyl-BLAHcarboxamide
@<TRIPOS>ATOM
      1 C1          0.9821    3.5349    0.0117 C.3       1 <0>        -0.0991
      2 C2          1.0787    2.0310    0.0027 C.2       1 <0>         0.3971
      3 N1         -0.0159    1.3226    0.0093 N.2       1 <0>        -0.4270
      4 C3          0.0021   -0.0041    0.0020 C.2       1 <0>         0.0518
      5 C4          1.1999   -0.7379   -0.0128 C.2       1 <0>        -0.0995
      6 C5          1.0814   -2.1510   -0.0197 C.2       1 <0>        -0.0833
      7 C6         -0.1648   -2.6768   -0.0119 C.2       1 <0>        -0.1339
      8 S1         -1.2439   -1.2696    0.0059 S.3       1 <0>         0.1995
      9 C7         -0.5429   -4.1252   -0.0167 C.3       1 <0>        -0.0449
     10 C8          0.7015   -4.9517    0.3392 C.3       1 <0>        -0.1114
     11 C9          1.8783   -4.4545   -0.5053 C.3       1 <0>        -0.0947
     12 H1          1.5780   -4.4066   -1.5520 H         1 <0>         0.0751
     13 C10         2.3057   -3.0637   -0.0356 C.3       1 <0>        -0.0529
     14 C11         3.0542   -5.4221   -0.3579 C.3       1 <0>        -0.1478
     15 C12         2.4298    0.0816   -0.0195 C.2       1 <0>         0.3449
     16 N2          2.3072    1.4437   -0.0118 N.pl3     1 <0>        -0.3259
     17 N3          3.6150    1.9508   -0.0216 N.2       1 <0>        -0.2831
     18 C13         4.4307    0.9134   -0.0338 C.2       1 <0>         0.2194
     19 N4          3.7113   -0.2147   -0.0322 N.2       1 <0>        -0.4765
     20 C14         5.9094    0.9864   -0.0466 C.2       1 <0>         0.6258
     21 O1          6.5682   -0.0348   -0.0569 O.2       1 <0>        -0.4777
     22 N5          6.5249    2.1854   -0.0470 N.am      1 <0>        -0.7176
     23 C15         7.9881    2.2577   -0.0597 C.3       1 <0>         0.0958
     24 C16         8.4263    3.7236   -0.0574 C.3       1 <0>        -0.0187
     25 C17        10.4356    3.2713   -1.3306 C.3       1 <0>        -0.0509
     26 C18        10.3548    5.1699    0.1698 C.3       1 <0>        -0.0418
     27 H2          0.9686    3.8919    1.0415 H         1 <0>         0.1045
     28 H3          1.8420    3.9574   -0.5081 H         1 <0>         0.0957
     29 H4          0.0658    3.8431   -0.4917 H         1 <0>         0.1103
     30 H5         -1.3251   -4.3029    0.7214 H         1 <0>         0.0925
     31 H6         -0.9013   -4.4078   -1.0065 H         1 <0>         0.0948
     32 H7          0.9325   -4.8279    1.3972 H         1 <0>         0.0717
     33 H8          0.5156   -6.0039    0.1237 H         1 <0>         0.0817
     34 H9          2.7249   -3.1301    0.9683 H         1 <0>         0.0816
     35 H10         3.0545   -2.6618   -0.7182 H         1 <0>         0.0862
     36 H11         2.7543   -6.4130   -0.6991 H         1 <0>         0.0598
     37 H12         3.8926   -5.0694   -0.9585 H         1 <0>         0.0572
     38 H13         3.3534   -5.4735    0.6890 H         1 <0>         0.0570
     39 H14         5.9991    3.0005   -0.0388 H         1 <0>         0.4172
     40 H15         8.3842    1.7586    0.8246 H         1 <0>         0.0959
     41 H16         8.3683    1.7662   -0.9552 H         1 <0>         0.0959
     42 H17         8.0302    4.2227   -0.9417 H         1 <0>         0.1412
     43 H18         8.0461    4.2151    0.8381 H         1 <0>         0.1395
     44 H19        10.0494    3.8577   -2.1643 H         1 <0>         0.1262
     45 H20        11.5235    3.3367   -1.3134 H         1 <0>         0.1275
     46 H21        10.1360    2.2300   -1.4493 H         1 <0>         0.1245
     47 H22         9.9966    5.5090    1.1418 H         1 <0>         0.1236
     48 H23        11.4444    5.1951    0.1551 H         1 <0>         0.1267
     49 H24         9.9658    5.8252   -0.6096 H         1 <0>         0.1250
     50 N6          9.9033    3.7796   -0.0488 N.4       1 <0>        -0.3938
     51 H25        10.2549    3.1907    0.7153 H         1 <0>         0.4351
@<TRIPOS>BOND
     1    1    2 1
     2    1   27 1
     3    1   28 1
     4    1   29 1
     5    2   16 1
     6    2    3 2
     7    3    4 1
     8    4    8 1
     9    4    5 2
    10    5    6 1
    11    5   15 1
    12    6   13 1
    13    6    7 2
    14    7    8 1
    15    7    9 1
    16    9   10 1
    17    9   30 1
    18    9   31 1
    19   10   11 1
    20   10   32 1
    21   10   33 1
    22   11   12 1
    23   11   13 1
    24   11   14 1
    25   13   34 1
    26   13   35 1
    27   14   36 1
    28   14   37 1
    29   14   38 1
    30   15   19 2
    31   15   16 1
    32   16   17 1
    33   17   18 2
    34   18   19 1
    35   18   20 1
    36   20   21 2
    37   20   22 am
    38   22   23 1
    39   22   39 1
    40   23   24 1
    41   23   40 1
    42   23   41 1
    43   24   42 1
    44   24   43 1
    45   24   50 1
    46   25   44 1
    47   25   45 1
    48   25   46 1
    49   25   50 1
    50   26   47 1
    51   26   48 1
    52   26   49 1
    53   26   50 1
    54   50   51 1
@<TRIPOS>MOLECULE
ZINC03841431
   57    60     0     0     0
SMALL
USER_CHARGES
N-(oxo-tetrahydropyran-4-yl-BLAHyl)propane-1-sulfonamide
@<TRIPOS>ATOM
      1 C1         -0.0127    1.0858    0.0080 C.3       1 <0>        -0.1465
      2 C2         -0.7288    1.5792    1.2668 C.3       1 <0>        -0.1181
      3 C3         -0.7496    3.1091    1.2752 C.3       1 <0>        -0.6262
      4 S1         -1.5987    3.6941    2.7677 S.o2      1 <0>         2.5941
      5 O1         -2.9791    3.3624    2.7073 O.2       1 <0>        -0.9370
      6 O2         -0.8291    3.3848    3.9216 O.2       1 <0>        -0.9280
      7 N1         -1.5560    5.3461    2.6616 N.pl3     1 <0>        -1.0327
      8 C4         -2.2433    5.9996    1.6312 C.2       1 <0>         0.0967
      9 C5         -2.9483    5.2829    0.7035 C.2       1 <0>        -0.1244
     10 C6         -3.6467    5.9724   -0.2948 C.2       1 <0>        -0.1352
     11 C7         -3.6105    7.3288   -0.3538 C.2       1 <0>         0.0590
     12 N2         -2.8480    8.0386    0.5143 N.am      1 <0>        -0.4956
     13 C8         -2.2141    7.4042    1.5311 C.2       1 <0>         0.5120
     14 O3         -1.6122    8.0572    2.3687 O.2       1 <0>        -0.5128
     15 C9         -2.6322    9.4812    0.3965 C.3       1 <0>         0.0811
     16 C10        -3.6804   10.1543   -0.4731 C.3       1 <0>        -0.1211
     17 H1         -3.3234   11.1511   -0.7320 H         1 <0>         0.1428
     18 C11        -3.8575    9.3544   -1.7669 C.3       1 <0>        -0.1294
     19 C12        -4.4769    8.0027   -1.3942 C.3       1 <0>        -0.0566
     20 H2         -4.5750    7.3711   -2.2771 H         1 <0>         0.1517
     21 C13        -5.8483    8.2683   -0.7515 C.3       1 <0>        -0.0044
     22 C14        -5.0081   10.3065    0.2537 C.3       1 <0>        -0.0046
     23 C15        -6.8792    9.1472    1.2574 C.3       1 <0>         0.0270
     24 C16        -6.5930    9.8212    2.6028 C.3       1 <0>        -0.1820
     25 C17        -7.8900    9.8963    3.4130 C.3       1 <0>         0.0640
     26 O4         -8.4220    8.5811    3.5841 O.3       1 <0>        -0.3668
     27 C18        -8.7532    7.9219    2.3602 C.3       1 <0>         0.0634
     28 C19        -7.4906    7.7654    1.5087 C.3       1 <0>        -0.1821
     29 H3          0.0021   -0.0041    0.0020 H         1 <0>         0.0693
     30 H4          1.0099    1.4631    0.0003 H         1 <0>         0.0616
     31 H5         -0.5399    1.4469   -0.8751 H         1 <0>         0.0598
     32 H6         -1.7514    1.2020    1.2746 H         1 <0>         0.0831
     33 H7         -0.2017    1.2182    2.1499 H         1 <0>         0.0845
     34 H8          0.2730    3.4864    1.2675 H         1 <0>         0.1417
     35 H9         -1.2768    3.4701    0.3922 H         1 <0>         0.1353
     36 H10        -1.0550    5.8612    3.3133 H         1 <0>         0.4386
     37 H11        -2.9685    4.2038    0.7427 H         1 <0>         0.1526
     38 H12        -4.2165    5.4203   -1.0274 H         1 <0>         0.1632
     39 H13        -2.6612    9.9249    1.3917 H         1 <0>         0.1116
     40 H14        -1.6478    9.6565   -0.0376 H         1 <0>         0.1096
     41 H15        -4.5207    9.8908   -2.4455 H         1 <0>         0.1038
     42 H16        -2.8886    9.2001   -2.2419 H         1 <0>         0.1053
     43 H17        -6.4608    8.8683   -1.4246 H         1 <0>         0.1468
     44 H18        -6.3477    7.3219   -0.5441 H         1 <0>         0.1394
     45 H19        -4.8391   10.8108    1.2051 H         1 <0>         0.1331
     46 H20        -5.6818   10.9097   -0.3549 H         1 <0>         0.1421
     47 H21        -7.5787    9.7570    0.6856 H         1 <0>         0.1446
     48 H22        -5.8547    9.2376    3.1528 H         1 <0>         0.0934
     49 H23        -6.2098   10.8272    2.4321 H         1 <0>         0.1009
     50 H24        -8.6135   10.5149    2.8820 H         1 <0>         0.0670
     51 H25        -7.6840   10.3349    4.3894 H         1 <0>         0.1169
     52 H26        -9.4880    8.5146    1.8154 H         1 <0>         0.0670
     53 H27        -9.1690    6.9381    2.5780 H         1 <0>         0.1178
     54 H28        -7.7488    7.3026    0.5562 H         1 <0>         0.1032
     55 H29        -6.7710    7.1391    2.0359 H         1 <0>         0.0956
     56 N3         -5.6088    8.9841    0.5223 N.4       1 <0>        -0.3968
     57 H30        -4.9597    8.4337    1.0968 H         1 <0>         0.4210
@<TRIPOS>BOND
     1    1    2 1
     2    1   29 1
     3    1   30 1
     4    1   31 1
     5    2    3 1
     6    2   32 1
     7    2   33 1
     8    3    4 1
     9    3   34 1
    10    3   35 1
    11    4    5 2
    12    4    6 2
    13    4    7 1
    14    7    8 1
    15    7   36 1
    16    8   13 1
    17    8    9 2
    18    9   10 1
    19    9   37 1
    20   10   11 2
    21   10   38 1
    22   11   19 1
    23   11   12 1
    24   12   13 am
    25   12   15 1
    26   13   14 2
    27   15   16 1
    28   15   39 1
    29   15   40 1
    30   16   17 1
    31   16   22 1
    32   16   18 1
    33   18   19 1
    34   18   41 1
    35   18   42 1
    36   19   20 1
    37   19   21 1
    38   21   43 1
    39   21   44 1
    40   21   56 1
    41   22   45 1
    42   22   46 1
    43   22   56 1
    44   23   28 1
    45   23   24 1
    46   23   47 1
    47   23   56 1
    48   24   25 1
    49   24   48 1
    50   24   49 1
    51   25   26 1
    52   25   50 1
    53   25   51 1
    54   26   27 1
    55   27   28 1
    56   27   52 1
    57   27   53 1
    58   28   54 1
    59   28   55 1
    60   56   57 1
@<TRIPOS>MOLECULE
ZINC03169554
   45    49     0     0     0
SMALL
USER_CHARGES
N-[3-(3H-benzoimidazol-1-yl)quinoxalin-2-yl]benzenesulfonamide
@<TRIPOS>ATOM
      1 C1          3.7143   -4.4456    3.4909 C.ar      1 <0>        -0.0508
      2 C2          2.8862   -5.5244    3.2427 C.ar      1 <0>        -0.1388
      3 C3          2.2601   -5.6473    2.0164 C.ar      1 <0>        -0.0251
      4 C4          2.4625   -4.6919    1.0381 C.ar      1 <0>        -0.6806
      5 C5          3.2950   -3.6162    1.2843 C.ar      1 <0>        -0.0057
      6 C6          3.9166   -3.4902    2.5126 C.ar      1 <0>        -0.1398
      7 S1          1.6648   -4.8489   -0.5251 S.o2      1 <0>         2.6752
      8 O1          1.3752   -6.2295   -0.6964 O.2       1 <0>        -0.9289
      9 O2          2.4471   -4.1134   -1.4559 O.2       1 <0>        -0.9027
     10 N1          0.2078   -4.0701   -0.4118 N.pl3     1 <0>        -1.0353
     11 C7          0.1685   -2.6995   -0.2143 C.ar      1 <0>         0.3909
     12 C8         -1.1044   -2.0331    0.0580 C.ar      1 <0>         0.2248
     13 N2         -1.1318   -0.7263    0.2453 N.ar      1 <0>        -0.3566
     14 C9          0.0041   -0.0186    0.1852 C.ar      1 <0>         0.0680
     15 C10        -0.0141    1.3734    0.3828 C.ar      1 <0>        -0.0626
     16 C11         1.1468    2.0817    0.3188 C.ar      1 <0>        -0.0905
     17 C12         2.3584    1.4461    0.0593 C.ar      1 <0>        -0.0519
     18 C13         2.4134    0.0997   -0.1371 C.ar      1 <0>        -0.0966
     19 C14         1.2356   -0.6643   -0.0784 C.ar      1 <0>         0.1507
     20 N3          1.2776   -1.9910   -0.2706 N.ar      1 <0>        -0.4375
     21 N4         -2.2662   -2.7633    0.1190 N.pl3     1 <0>        -0.3250
     22 C15        -2.4345   -3.8650    0.8095 C.cat     1 <0>         0.3617
     23 N5         -3.6948   -4.3259    0.6501 N.pl3     1 <0>        -0.5093
     24 H1         -4.0682   -5.1238    1.0560 H         1 <0>         0.4700
     25 C16        -4.3557   -3.4547   -0.1951 C.ar      1 <0>         0.0770
     26 C17        -3.4292   -2.4528   -0.5251 C.ar      1 <0>         0.0553
     27 C18        -3.8088   -1.4189   -1.3809 C.ar      1 <0>        -0.0640
     28 C19        -5.0892   -1.3852   -1.8869 C.ar      1 <0>        -0.0717
     29 C20        -6.0033   -2.3743   -1.5551 C.ar      1 <0>        -0.0606
     30 C21        -5.6421   -3.4053   -0.7135 C.ar      1 <0>        -0.0832
     31 H2          4.2029   -4.3492    4.4492 H         1 <0>         0.1370
     32 H3          2.7282   -6.2708    4.0070 H         1 <0>         0.1384
     33 H4          1.6132   -6.4901    1.8225 H         1 <0>         0.1413
     34 H5          3.4566   -2.8720    0.5185 H         1 <0>         0.1489
     35 H6          4.5633   -2.6472    2.7066 H         1 <0>         0.1379
     36 H7         -0.6182   -4.5737   -0.4836 H         1 <0>         0.4269
     37 H8         -0.9471    1.8800    0.5805 H         1 <0>         0.1522
     38 H9          1.1278    3.1508    0.4709 H         1 <0>         0.1525
     39 H10         3.2666    2.0287    0.0131 H         1 <0>         0.1538
     40 H11         3.3602   -0.3797   -0.3378 H         1 <0>         0.1573
     41 H12        -1.6762   -4.3356    1.4177 H         1 <0>         0.2664
     42 H13        -3.1021   -0.6455   -1.6430 H         1 <0>         0.1506
     43 H14        -5.3839   -0.5826   -2.5467 H         1 <0>         0.1603
     44 H15        -7.0045   -2.3366   -1.9581 H         1 <0>         0.1616
     45 H16        -6.3583   -4.1725   -0.4589 H         1 <0>         0.1587
@<TRIPOS>BOND
     1    1    6 ar
     2    1    2 ar
     3    1   31 1
     4    2    3 ar
     5    2   32 1
     6    3    4 ar
     7    3   33 1
     8    4    5 ar
     9    4    7 1
    10    5    6 ar
    11    5   34 1
    12    6   35 1
    13    7    8 2
    14    7    9 2
    15    7   10 1
    16   10   11 1
    17   10   36 1
    18   11   20 ar
    19   11   12 ar
    20   12   13 ar
    21   12   21 1
    22   13   14 ar
    23   14   19 ar
    24   14   15 ar
    25   15   16 ar
    26   15   37 1
    27   16   17 ar
    28   16   38 1
    29   17   18 ar
    30   17   39 1
    31   18   19 ar
    32   18   40 1
    33   19   20 ar
    34   21   26 1
    35   21   22 2
    36   22   23 1
    37   22   41 1
    38   23   24 1
    39   23   25 1
    40   25   30 ar
    41   25   26 ar
    42   26   27 ar
    43   27   28 ar
    44   27   42 1
    45   28   29 ar
    46   28   43 1
    47   29   30 ar
    48   29   44 1
    49   30   45 1
@<TRIPOS>MOLECULE
ZINC08582468
   57    61     0     0     0
SMALL
USER_CHARGES
6-methyl-3-[morpholino-[1-(tetrahydrofuran-2-ylmethyl)tetrazol-5-yl]-methyl]-quinolin-2-ol
@<TRIPOS>ATOM
      1 C1         -6.5117   -2.4720   -2.9466 C.3       1 <0>        -0.1269
      2 C2         -5.6852   -1.8846   -1.8317 C.ar      1 <0>        -0.0632
      3 C3         -6.2853   -1.6013   -0.6069 C.ar      1 <0>        -0.0698
      4 C4         -5.5673   -1.0697    0.4201 C.ar      1 <0>        -0.0952
      5 C5         -4.1985   -0.8008    0.2487 C.ar      1 <0>         0.1630
      6 C6         -3.5905   -1.0897   -0.9975 C.ar      1 <0>        -0.1050
      7 C7         -4.3615   -1.6372   -2.0349 C.ar      1 <0>        -0.0935
      8 C8         -2.2191   -0.8161   -1.1706 C.ar      1 <0>         0.0230
      9 C9         -1.5283   -0.2898   -0.1197 C.ar      1 <0>        -0.2185
     10 C10        -2.1875   -0.0265    1.0870 C.ar      1 <0>         0.3496
     11 N1         -3.4692   -0.2798    1.2416 N.ar      1 <0>        -0.4602
     12 O1         -1.4881    0.5018    2.1213 O.3       1 <0>        -0.4746
     13 C11        -0.0588    0.0140   -0.2587 C.3       1 <0>         0.1971
     14 H1          0.4684   -0.3257    0.6327 H         1 <0>         0.1685
     15 C12         0.4892   -0.6984   -1.4684 C.2       1 <0>         0.1382
     16 N2          0.2583   -0.4000   -2.7237 N.2       1 <0>        -0.2881
     17 N3          0.9061   -1.2378   -3.4575 N.2       1 <0>        -0.0446
     18 N4          1.5378   -2.0678   -2.7030 N.2       1 <0>        -0.0486
     19 N5          1.3059   -1.7683   -1.4696 N.pl3     1 <0>        -0.2678
     20 C13         1.8329   -2.4619   -0.2918 C.3       1 <0>         0.1020
     21 C14         0.9470   -3.6674    0.0291 C.3       1 <0>         0.0596
     22 H2          0.8827   -4.3293   -0.8345 H         1 <0>         0.0937
     23 C15         1.5039   -4.4327    1.2558 C.3       1 <0>        -0.1449
     24 C16         0.2171   -5.1274    1.7788 C.3       1 <0>        -0.1546
     25 C17        -0.8734   -4.0838    1.4550 C.3       1 <0>         0.0537
     26 O2         -0.3642   -3.2319    0.4222 O.3       1 <0>        -0.3814
     27 C18        -0.6474    1.9733   -1.5556 C.3       1 <0>        -0.0614
     28 C19        -0.4704    3.4912   -1.6471 C.3       1 <0>         0.0415
     29 O3          0.9219    3.7979   -1.7598 O.3       1 <0>        -0.3512
     30 C20         1.7080    3.3156   -0.6667 C.3       1 <0>         0.0406
     31 C21         1.5531    1.7958   -0.5654 C.3       1 <0>        -0.0450
     32 H3         -6.4834   -3.5599   -2.8855 H         1 <0>         0.0819
     33 H4         -7.5423   -2.1295   -2.8541 H         1 <0>         0.0779
     34 H5         -6.1070   -2.1514   -3.9066 H         1 <0>         0.0749
     35 H6         -7.3367   -1.8064   -0.4701 H         1 <0>         0.1438
     36 H7         -6.0476   -0.8559    1.3636 H         1 <0>         0.1478
     37 H8         -3.9074   -1.8614   -2.9888 H         1 <0>         0.1375
     38 H9         -1.7272   -1.0216   -2.1099 H         1 <0>         0.1507
     39 H10        -1.4181    1.4660    2.0971 H         1 <0>         0.3952
     40 H11         2.8488   -2.8013   -0.4943 H         1 <0>         0.1427
     41 H12         1.8404   -1.7799    0.5584 H         1 <0>         0.1195
     42 H13         2.2517   -5.1664    0.9548 H         1 <0>         0.0984
     43 H14         1.9081   -3.7444    1.9980 H         1 <0>         0.0879
     44 H15         0.2799   -5.3024    2.8529 H         1 <0>         0.0933
     45 H16         0.0320   -6.0600    1.2458 H         1 <0>         0.0844
     46 H17        -1.0966   -3.4941    2.3442 H         1 <0>         0.0761
     47 H18        -1.7756   -4.5873    1.1077 H         1 <0>         0.0732
     48 H19        -0.2920    1.5093   -2.4757 H         1 <0>         0.1689
     49 H20        -1.7019    1.7377   -1.4122 H         1 <0>         0.1376
     50 H21        -0.8748    3.9595   -0.7497 H         1 <0>         0.0804
     51 H22        -0.9982    3.8677   -2.5234 H         1 <0>         0.1452
     52 H23         1.3670    3.7787    0.2592 H         1 <0>         0.0853
     53 H24         2.7560    3.5643   -0.8336 H         1 <0>         0.1444
     54 H25         2.1049    1.4307    0.3009 H         1 <0>         0.1433
     55 H26         1.9439    1.3284   -1.4693 H         1 <0>         0.1344
     56 N6          0.1200    1.4758   -0.3948 N.4       1 <0>        -0.3872
     57 H27        -0.2259    1.9349    0.4560 H         1 <0>         0.4268
@<TRIPOS>BOND
     1    1    2 1
     2    1   32 1
     3    1   33 1
     4    1   34 1
     5    2    7 ar
     6    2    3 ar
     7    3    4 ar
     8    3   35 1
     9    4    5 ar
    10    4   36 1
    11    5   11 ar
    12    5    6 ar
    13    6    7 ar
    14    6    8 ar
    15    7   37 1
    16    8    9 ar
    17    8   38 1
    18    9   10 ar
    19    9   13 1
    20   10   11 ar
    21   10   12 1
    22   12   39 1
    23   13   14 1
    24   13   15 1
    25   13   56 1
    26   15   19 1
    27   15   16 2
    28   16   17 1
    29   17   18 2
    30   18   19 1
    31   19   20 1
    32   20   21 1
    33   20   40 1
    34   20   41 1
    35   21   22 1
    36   21   26 1
    37   21   23 1
    38   23   24 1
    39   23   42 1
    40   23   43 1
    41   24   25 1
    42   24   44 1
    43   24   45 1
    44   25   26 1
    45   25   46 1
    46   25   47 1
    47   27   28 1
    48   27   48 1
    49   27   49 1
    50   27   56 1
    51   28   29 1
    52   28   50 1
    53   28   51 1
    54   29   30 1
    55   30   31 1
    56   30   52 1
    57   30   53 1
    58   31   54 1
    59   31   55 1
    60   31   56 1
    61   56   57 1
@<TRIPOS>MOLECULE
ZINC09054613
   51    54     0     0     0
SMALL
USER_CHARGES
N-(1,1-dioxothiolan-3-yl)-7,8-dimethyl-3-(morpholinomethyl)-9-thia-2,4-diazabicyclo[4.3.0]nona-1,3,5,7-tetraen-5-amine
@<TRIPOS>ATOM
      1 C1          0.0567   -0.0030   -0.0280 C.3       1 <0>        -0.1188
      2 C2          0.0310    1.5037   -0.0169 C.2       1 <0>        -0.1086
      3 C3          1.1397    2.2032   -0.2998 C.2       1 <0>        -0.1131
      4 S1          0.6094    3.8996   -0.1590 S.3       1 <0>         0.1550
      5 C4         -1.0873    3.6233    0.2760 C.ar      1 <0>         0.1245
      6 C5         -1.1963    2.2153    0.2945 C.ar      1 <0>        -0.2042
      7 C6         -2.4821    1.7080    0.6284 C.ar      1 <0>         0.4983
      8 N1         -3.4647    2.5572    0.8825 N.ar      1 <0>        -0.5757
      9 C7         -3.2914    3.8660    0.8416 C.ar      1 <0>         0.3087
     10 N2         -2.1211    4.3963    0.5431 N.ar      1 <0>        -0.4908
     11 C8         -4.4565    4.7734    1.1420 C.3       1 <0>         0.0859
     12 C9         -4.3482    5.8701   -1.0150 C.3       1 <0>        -0.0396
     13 C10        -5.1149    6.1063   -2.3189 C.3       1 <0>         0.0372
     14 O1         -6.3615    6.7424   -2.0245 O.3       1 <0>        -0.3548
     15 C11        -7.1959    5.9915   -1.1383 C.3       1 <0>         0.0347
     16 C12        -6.4503    5.7541    0.1776 C.3       1 <0>        -0.0377
     17 N3         -2.7045    0.3438    0.6813 N.pl3     1 <0>        -0.6883
     18 C13        -4.0594   -0.1696    0.8982 C.3       1 <0>         0.1474
     19 H1         -4.5958    0.4983    1.5721 H         1 <0>         0.1195
     20 C14        -3.9798   -1.5715    1.5252 C.3       1 <0>        -0.1452
     21 C15        -5.3942   -2.2147    1.4544 C.3       1 <0>        -0.5690
     22 S2         -5.9232   -1.6815   -0.2281 S.o2      1 <0>         2.3746
     23 O2         -5.5721   -2.6909   -1.1646 O.2       1 <0>        -0.9214
     24 O3         -7.2663   -1.2217   -0.1664 O.2       1 <0>        -0.9278
     25 C16        -4.8055   -0.2389   -0.4561 C.3       1 <0>        -0.6067
     26 C17         2.5082    1.6799   -0.6526 C.3       1 <0>        -0.0828
     27 H2          0.1737   -0.3720    0.9909 H         1 <0>         0.0826
     28 H3         -0.8772   -0.3793   -0.4456 H         1 <0>         0.0687
     29 H4          0.8921   -0.3477   -0.6375 H         1 <0>         0.0905
     30 H5         -5.1294    4.2804    1.8436 H         1 <0>         0.1573
     31 H6         -4.0904    5.7016    1.5808 H         1 <0>         0.1586
     32 H7         -4.1155    6.8285   -0.5508 H         1 <0>         0.1470
     33 H8         -3.4233    5.3343   -1.2285 H         1 <0>         0.1363
     34 H9         -5.3007    5.1512   -2.8100 H         1 <0>         0.0775
     35 H10        -4.5266    6.7457   -2.9771 H         1 <0>         0.1425
     36 H11        -7.4422    5.0330   -1.5951 H         1 <0>         0.0811
     37 H12        -8.1123    6.5481   -0.9421 H         1 <0>         0.1447
     38 H13        -7.0598    5.1336    0.8345 H         1 <0>         0.1452
     39 H14        -6.2512    6.7103    0.6615 H         1 <0>         0.1452
     40 H15        -1.9634   -0.2729    0.5748 H         1 <0>         0.4226
     41 H16        -3.2689   -2.1833    0.9698 H         1 <0>         0.0976
     42 H17        -3.6634   -1.4921    2.5652 H         1 <0>         0.1130
     43 H18        -5.3372   -3.3010    1.5239 H         1 <0>         0.1525
     44 H19        -6.0517   -1.8066    2.2221 H         1 <0>         0.1465
     45 H20        -5.3797    0.6716   -0.6279 H         1 <0>         0.1415
     46 H21        -4.1069   -0.4166   -1.2736 H         1 <0>         0.1438
     47 H22         2.5825    1.5564   -1.7331 H         1 <0>         0.0921
     48 H23         3.2658    2.3870   -0.3148 H         1 <0>         0.0860
     49 H24         2.6661    0.7178   -0.1653 H         1 <0>         0.0922
     50 N4         -5.1848    5.0485   -0.1155 N.4       1 <0>        -0.3944
     51 H25        -5.3985    4.1576   -0.5791 H         1 <0>         0.4278
@<TRIPOS>BOND
     1    1    2 1
     2    1   27 1
     3    1   28 1
     4    1   29 1
     5    2    6 1
     6    2    3 2
     7    3    4 1
     8    3   26 1
     9    4    5 1
    10    5   10 ar
    11    5    6 ar
    12    6    7 ar
    13    7    8 ar
    14    7   17 1
    15    8    9 ar
    16    9   10 ar
    17    9   11 1
    18   11   30 1
    19   11   31 1
    20   11   50 1
    21   12   13 1
    22   12   32 1
    23   12   33 1
    24   12   50 1
    25   13   14 1
    26   13   34 1
    27   13   35 1
    28   14   15 1
    29   15   16 1
    30   15   36 1
    31   15   37 1
    32   16   38 1
    33   16   39 1
    34   16   50 1
    35   17   18 1
    36   17   40 1
    37   18   19 1
    38   18   25 1
    39   18   20 1
    40   20   21 1
    41   20   41 1
    42   20   42 1
    43   21   22 1
    44   21   43 1
    45   21   44 1
    46   22   23 2
    47   22   24 2
    48   22   25 1
    49   25   45 1
    50   25   46 1
    51   26   47 1
    52   26   48 1
    53   26   49 1
    54   50   51 1
@<TRIPOS>MOLECULE
ZINC09338760
   47    49     0     0     0
SMALL
USER_CHARGES
N-(5-ethyl-1,3,4-thiadiazol-2-yl)-4-(4-methylpiperazin-1-yl)-3-nitro-benzamide
@<TRIPOS>ATOM
      1 C1         -0.0127    1.0858    0.0080 C.3       1 <0>        -0.1510
      2 C2         -0.7288    1.5792    1.2668 C.3       1 <0>        -0.0320
      3 C3          0.0000    1.0800    2.4877 C.2       1 <0>         0.0902
      4 N1          0.9813    1.6321    3.1733 N.2       1 <0>        -0.2572
      5 N2          1.4882    1.0772    4.1861 N.2       1 <0>        -0.2704
      6 C4          1.0634   -0.0998    4.6247 C.2       1 <0>         0.2721
      7 S1         -0.2251   -0.4285    3.4256 S.3       1 <0>        -0.0162
      8 N3          1.4913   -0.8580    5.7080 N.am      1 <0>        -0.6060
      9 C5          2.4898   -0.4076    6.4933 C.2       1 <0>         0.5532
     10 O1          3.0162    0.6621    6.2540 O.2       1 <0>        -0.4390
     11 C6          2.9439   -1.2122    7.6428 C.ar      1 <0>        -0.1127
     12 C7          2.3358   -2.4398    7.9227 C.ar      1 <0>        -0.0269
     13 C8          2.7660   -3.1909    8.9922 C.ar      1 <0>        -0.1504
     14 C9          3.7973   -2.7240    9.8028 C.ar      1 <0>         0.1628
     15 C10         4.4009   -1.4997    9.5303 C.ar      1 <0>        -0.0187
     16 C11         3.9794   -0.7464    8.4584 C.ar      1 <0>         0.0141
     17 N4          5.4976   -1.0075   10.3941 N.pl3     1 <0>         0.0246
     18 O2          6.0265    0.0635   10.1560 O.2       1 <0>        -0.1606
     19 O3          5.8712   -1.6736   11.3429 O.3       1 <0>        -0.1068
     20 N5          4.2255   -3.4826   10.8867 N.pl3     1 <0>        -0.4965
     21 C12         4.7993   -4.7602   10.4414 C.3       1 <0>         0.0310
     22 C13         5.3294   -5.5285   11.6543 C.3       1 <0>         0.0044
     23 C14         3.6595   -4.4730   13.0529 C.3       1 <0>         0.0046
     24 C15         3.1294   -3.7047   11.8400 C.3       1 <0>         0.0298
     25 C16         4.6857   -6.5520   13.7526 C.3       1 <0>        -0.0407
     26 H1          0.0021   -0.0041    0.0020 H         1 <0>         0.0596
     27 H2          1.0099    1.4631    0.0003 H         1 <0>         0.0662
     28 H3         -0.5399    1.4469   -0.8751 H         1 <0>         0.0791
     29 H4         -0.7436    2.6691    1.2728 H         1 <0>         0.1125
     30 H5         -1.7514    1.2020    1.2746 H         1 <0>         0.0997
     31 H6          1.0714   -1.7113    5.8989 H         1 <0>         0.4263
     32 H7          1.5325   -2.8003    7.2972 H         1 <0>         0.1522
     33 H8          2.2997   -4.1413    9.2063 H         1 <0>         0.1544
     34 H9          4.4479    0.2036    8.2476 H         1 <0>         0.1799
     35 H10         4.0297   -5.3510    9.9446 H         1 <0>         0.0699
     36 H11         5.6168   -4.5691    9.7463 H         1 <0>         0.1258
     37 H12         6.1180   -4.9497   12.1352 H         1 <0>         0.1486
     38 H13         5.7293   -6.4892   11.3298 H         1 <0>         0.1400
     39 H14         4.4291   -3.8822   13.5497 H         1 <0>         0.1482
     40 H15         2.8420   -4.6638   13.7482 H         1 <0>         0.1401
     41 H16         2.7294   -2.7440   12.1645 H         1 <0>         0.1262
     42 H17         2.3408   -4.2835   11.3591 H         1 <0>         0.0699
     43 H18         3.8399   -6.7584   14.4085 H         1 <0>         0.1234
     44 H19         5.1059   -7.4920   13.3949 H         1 <0>         0.1236
     45 H20         5.4469   -6.0003   14.3042 H         1 <0>         0.1272
     46 N6          4.2133   -5.7644   12.5939 N.4       1 <0>        -0.3995
     47 H21         3.4760   -6.2910   12.1109 H         1 <0>         0.4252
@<TRIPOS>BOND
     1    1    2 1
     2    1   26 1
     3    1   27 1
     4    1   28 1
     5    2    3 1
     6    2   29 1
     7    2   30 1
     8    3    7 1
     9    3    4 2
    10    4    5 1
    11    5    6 2
    12    6    7 1
    13    6    8 1
    14    8    9 am
    15    8   31 1
    16    9   10 2
    17    9   11 1
    18   11   16 ar
    19   11   12 ar
    20   12   13 ar
    21   12   32 1
    22   13   14 ar
    23   13   33 1
    24   14   15 ar
    25   14   20 1
    26   15   16 ar
    27   15   17 1
    28   16   34 1
    29   17   18 2
    30   17   19 1
    31   20   24 1
    32   20   21 1
    33   21   22 1
    34   21   35 1
    35   21   36 1
    36   22   37 1
    37   22   38 1
    38   22   46 1
    39   23   24 1
    40   23   39 1
    41   23   40 1
    42   23   46 1
    43   24   41 1
    44   24   42 1
    45   25   43 1
    46   25   44 1
    47   25   45 1
    48   25   46 1
    49   46   47 1
@<TRIPOS>MOLECULE
ZINC11934854
   56    59     0     0     0
SMALL
USER_CHARGES
2-[(2R)-1-indan-2-yl-3-oxo-piperazin-2-yl]-N-methyl-N-[(1-methylpyrazol-4-yl)methyl]acetamide
@<TRIPOS>ATOM
      1 C1          4.6610    0.8996   -6.5512 C.3       1 <0>         0.0961
      2 N1          3.5721   -0.0651   -6.3777 N.pl3     1 <0>        -0.3710
      3 C2          2.4902    0.0927   -5.5868 C.2       1 <0>         0.0779
      4 C3          1.7283   -1.0195   -5.7034 C.2       1 <0>        -0.2703
      5 C4          2.3620   -1.8829   -6.6030 C.2       1 <0>         0.0610
      6 N2          3.4673   -1.3118   -7.0079 N.2       1 <0>        -0.2868
      7 C5          0.4242   -1.2793   -4.9942 C.3       1 <0>         0.1883
      8 N3          0.6872   -1.9495   -3.7183 N.am      1 <0>        -0.5788
      9 C6          0.7311   -3.4124   -3.6547 C.3       1 <0>         0.0612
     10 C7          0.8889   -1.2202   -2.6030 C.2       1 <0>         0.5148
     11 O1          0.8526   -0.0090   -2.6556 O.2       1 <0>        -0.5616
     12 C8          1.1594   -1.9096   -1.2905 C.3       1 <0>        -0.1667
     13 C9          1.2304   -0.8678   -0.1723 C.3       1 <0>         0.0410
     14 H1          1.4602   -1.3655    0.7698 H         1 <0>         0.1726
     15 C10        -0.0948   -0.1690   -0.0569 C.2       1 <0>         0.5213
     16 O2         -1.1086   -0.8314   -0.1222 O.2       1 <0>        -0.4953
     17 N4         -0.2031    1.1526    0.1153 N.am      1 <0>        -0.7110
     18 C11         0.9526    2.0431    0.1708 C.3       1 <0>         0.0878
     19 C12         2.2213    1.2384    0.4588 C.3       1 <0>        -0.0280
     20 C13         3.6115   -0.5270   -0.4495 C.3       1 <0>         0.0191
     21 C14         4.0559   -0.8008    1.0030 C.3       1 <0>        -0.0958
     22 C15         5.5552   -0.5710    1.0053 C.ar      1 <0>        -0.1044
     23 C16         6.5198   -0.9604    1.9196 C.ar      1 <0>        -0.0939
     24 C17         7.8461   -0.6368    1.7109 C.ar      1 <0>        -0.1034
     25 C18         8.2130    0.0777    0.5857 C.ar      1 <0>        -0.1038
     26 C19         7.2526    0.4665   -0.3274 C.ar      1 <0>        -0.0940
     27 C20         5.9220    0.1433   -0.1196 C.ar      1 <0>        -0.1054
     28 C21         4.6967    0.4473   -0.9548 C.3       1 <0>        -0.0907
     29 H2          4.4204    1.5752   -7.3720 H         1 <0>         0.0813
     30 H3          4.7875    1.4736   -5.6333 H         1 <0>         0.0867
     31 H4          5.5850    0.3676   -6.7774 H         1 <0>         0.0940
     32 H5          2.2726    0.9517   -4.9693 H         1 <0>         0.1726
     33 H6          2.0014   -2.8535   -6.9101 H         1 <0>         0.1843
     34 H7         -0.2068   -1.9151   -5.6153 H         1 <0>         0.0980
     35 H8         -0.0837   -0.3327   -4.8095 H         1 <0>         0.0965
     36 H9         -0.2665   -3.7969   -3.4425 H         1 <0>         0.0756
     37 H10         1.0770   -3.8074   -4.6099 H         1 <0>         0.0891
     38 H11         1.4153   -3.7215   -2.8645 H         1 <0>         0.0748
     39 H12         2.1074   -2.4443   -1.3497 H         1 <0>         0.1303
     40 H13         0.3566   -2.6158   -1.0788 H         1 <0>         0.1549
     41 H14        -1.0892    1.5374    0.2033 H         1 <0>         0.4259
     42 H15         1.0594    2.5570   -0.7845 H         1 <0>         0.0996
     43 H16         0.8043    2.7793    0.9609 H         1 <0>         0.1271
     44 H17         2.1918    0.8639    1.4820 H         1 <0>         0.1419
     45 H18         3.0961    1.8747    0.3251 H         1 <0>         0.1524
     46 H19         3.6132   -1.4464   -1.0350 H         1 <0>         0.1481
     47 H20         3.5666   -0.1060    1.6856 H         1 <0>         0.1021
     48 H21         3.8270   -1.8296    1.2810 H         1 <0>         0.1061
     49 H22         6.2340   -1.5186    2.7989 H         1 <0>         0.1287
     50 H23         8.5959   -0.9419    2.4258 H         1 <0>         0.1348
     51 H24         9.2498    0.3313    0.4206 H         1 <0>         0.1346
     52 H25         7.5401    1.0243   -1.2064 H         1 <0>         0.1274
     53 H26         4.9041    0.2683   -2.0098 H         1 <0>         0.1028
     54 H27         4.3795    1.4789   -0.8021 H         1 <0>         0.0992
     55 N5          2.2789    0.1165   -0.4997 N.4       1 <0>        -0.3884
     56 H28         2.1172    0.4765   -1.4476 H         1 <0>         0.4390
@<TRIPOS>BOND
     1    1    2 1
     2    1   29 1
     3    1   30 1
     4    1   31 1
     5    2    6 1
     6    2    3 1
     7    3    4 2
     8    3   32 1
     9    4    5 1
    10    4    7 1
    11    5    6 2
    12    5   33 1
    13    7    8 1
    14    7   34 1
    15    7   35 1
    16    8    9 1
    17    8   10 am
    18    9   36 1
    19    9   37 1
    20    9   38 1
    21   10   11 2
    22   10   12 1
    23   12   13 1
    24   12   39 1
    25   12   40 1
    26   13   14 1
    27   13   15 1
    28   13   55 1
    29   15   16 2
    30   15   17 am
    31   17   18 1
    32   17   41 1
    33   18   19 1
    34   18   42 1
    35   18   43 1
    36   19   44 1
    37   19   45 1
    38   19   55 1
    39   20   28 1
    40   20   21 1
    41   20   46 1
    42   20   55 1
    43   21   22 1
    44   21   47 1
    45   21   48 1
    46   22   27 ar
    47   22   23 ar
    48   23   24 ar
    49   23   49 1
    50   24   25 ar
    51   24   50 1
    52   25   26 ar
    53   25   51 1
    54   26   27 ar
    55   26   52 1
    56   27   28 1
    57   28   53 1
    58   28   54 1
    59   55   56 1
@<TRIPOS>MOLECULE
ZINC12031410
   57    61     0     0     0
SMALL
USER_CHARGES
N-[[7-(benzofuran-2-ylmethyl)-5,6,8,9-tetrahydro-[1,2,4]triazolo[4,5-d][1,4]diazepin-3-yl]methyl]-2,5-dimethyl-furan-3-carboxamide
@<TRIPOS>ATOM
      1 C1         15.2144    3.7913   -1.7298 C.3       1 <0>        -0.0806
      2 C2         14.3185    4.1319   -2.8927 C.2       1 <0>         0.0016
      3 C3         13.1159    3.5878   -3.1337 C.2       1 <0>        -0.1952
      4 C4         12.6252    4.2217   -4.3662 C.2       1 <0>        -0.2577
      5 C5         13.5984    5.1021   -4.7388 C.2       1 <0>         0.0966
      6 O1         14.5938    5.0317   -3.8497 O.3       1 <0>        -0.1696
      7 C6         13.5579    6.0012   -5.9476 C.3       1 <0>        -0.0892
      8 C7         11.3464    3.9644   -5.0522 C.2       1 <0>         0.6021
      9 O2         11.0685    4.5720   -6.0683 O.2       1 <0>        -0.5280
     10 N1         10.4850    3.0558   -4.5533 N.am      1 <0>        -0.7286
     11 C8          9.2139    2.8001   -5.2352 C.3       1 <0>         0.2066
     12 C9          8.4412    1.7495   -4.4800 C.2       1 <0>         0.1852
     13 N2          8.5023    0.4570   -4.6661 N.2       1 <0>        -0.2527
     14 N3          7.7140   -0.1389   -3.8400 N.2       1 <0>        -0.2494
     15 C10         7.1229    0.7440   -3.0895 C.2       1 <0>         0.1513
     16 N4          7.5555    1.9666   -3.4845 N.pl3     1 <0>        -0.4797
     17 C11         7.1248    3.2513   -2.9331 C.3       1 <0>         0.0822
     18 C12         6.6958    3.0552   -1.4760 C.3       1 <0>        -0.0228
     19 C13         4.9693    1.4625   -2.1127 C.3       1 <0>        -0.0207
     20 C14         6.1489    0.4960   -1.9667 C.3       1 <0>        -0.0468
     21 C15         4.7942    2.6753   -0.0289 C.3       1 <0>         0.0868
     22 C16         3.2910    2.5694   -0.0154 C.2       1 <0>        -0.0667
     23 C17         2.6030    1.4195   -0.0148 C.2       1 <0>        -0.1241
     24 C18         1.1833    1.7922    0.0004 C.ar      1 <0>        -0.1521
     25 C19        -0.0126    1.0758    0.0080 C.ar      1 <0>        -0.0574
     26 C20        -1.2042    1.7463    0.0172 C.ar      1 <0>        -0.1263
     27 C21        -1.2297    3.1334    0.0297 C.ar      1 <0>        -0.0644
     28 C22        -0.0574    3.8586    0.0224 C.ar      1 <0>        -0.1127
     29 C23         1.1642    3.1969    0.0076 C.ar      1 <0>         0.0762
     30 O3          2.4458    3.6149   -0.0022 O.3       1 <0>        -0.1863
     31 H1         16.1237    4.3900   -1.7842 H         1 <0>         0.0818
     32 H2         14.6944    4.0045   -0.7959 H         1 <0>         0.0884
     33 H3         15.4732    2.7332   -1.7682 H         1 <0>         0.0904
     34 H4         12.6121    2.8363   -2.5439 H         1 <0>         0.1526
     35 H5         13.0988    6.9522   -5.6778 H         1 <0>         0.0925
     36 H6         14.5729    6.1760   -6.3045 H         1 <0>         0.0837
     37 H7         12.9728    5.5256   -6.7347 H         1 <0>         0.1105
     38 H8         10.7067    2.5712   -3.7428 H         1 <0>         0.4036
     39 H9          9.4093    2.4491   -6.2485 H         1 <0>         0.1150
     40 H10         8.6315    3.7206   -5.2755 H         1 <0>         0.0929
     41 H11         6.2838    3.6327   -3.5123 H         1 <0>         0.1142
     42 H12         7.9497    3.9625   -2.9773 H         1 <0>         0.1449
     43 H13         6.8721    3.9756   -0.9195 H         1 <0>         0.1616
     44 H14         7.2784    2.2478   -1.0324 H         1 <0>         0.1511
     45 H15         4.0761    1.0127   -1.6791 H         1 <0>         0.1507
     46 H16         4.7957    1.6658   -3.1694 H         1 <0>         0.1347
     47 H17         5.7878   -0.5312   -2.0165 H         1 <0>         0.1503
     48 H18         6.6435    0.6653   -1.0102 H         1 <0>         0.1138
     49 H19         5.0989    3.5862    0.4863 H         1 <0>         0.1523
     50 H20         5.2239    1.8107    0.4770 H         1 <0>         0.1634
     51 H21         3.0110    0.4196   -0.0236 H         1 <0>         0.1715
     52 H22         0.0021   -0.0041    0.0020 H         1 <0>         0.1368
     53 H23        -2.1315    1.1925    0.0186 H         1 <0>         0.1413
     54 H24        -2.1778    3.6505    0.0411 H         1 <0>         0.1470
     55 H25        -0.0885    4.9382    0.0284 H         1 <0>         0.1407
     56 N5          5.2486    2.7451   -1.4293 N.4       1 <0>        -0.4014
     57 H26         4.7349    3.4938   -1.9087 H         1 <0>         0.4380
@<TRIPOS>BOND
     1    1    2 1
     2    1   31 1
     3    1   32 1
     4    1   33 1
     5    2    6 1
     6    2    3 2
     7    3    4 1
     8    3   34 1
     9    4    5 2
    10    4    8 1
    11    5    6 1
    12    5    7 1
    13    7   35 1
    14    7   36 1
    15    7   37 1
    16    8    9 2
    17    8   10 am
    18   10   11 1
    19   10   38 1
    20   11   12 1
    21   11   39 1
    22   11   40 1
    23   12   16 1
    24   12   13 2
    25   13   14 1
    26   14   15 2
    27   15   20 1
    28   15   16 1
    29   16   17 1
    30   17   18 1
    31   17   41 1
    32   17   42 1
    33   18   43 1
    34   18   44 1
    35   18   56 1
    36   19   20 1
    37   19   45 1
    38   19   46 1
    39   19   56 1
    40   20   47 1
    41   20   48 1
    42   21   22 1
    43   21   49 1
    44   21   50 1
    45   21   56 1
    46   22   30 1
    47   22   23 2
    48   23   24 1
    49   23   51 1
    50   24   29 ar
    51   24   25 ar
    52   25   26 ar
    53   25   52 1
    54   26   27 ar
    55   26   53 1
    56   27   28 ar
    57   27   54 1
    58   28   29 ar
    59   28   55 1
    60   29   30 1
    61   56   57 1
@<TRIPOS>MOLECULE
ZINC12291480
   61    64     0     0     0
SMALL
USER_CHARGES
1-cyclopentyl-4-[(2R)-2-hydroxy-2-(1-methylsulfonyl-3,4-dihydro-2H-quinolin-6-yl)ethyl]piperazin-2-one
@<TRIPOS>ATOM
      1 C1         -6.0416    8.6302   -6.7433 C.3       1 <0>        -0.6700
      2 S1         -5.2101    7.1447   -7.3699 S.o2      1 <0>         2.5969
      3 O1         -5.2552    7.1208   -8.7900 O.2       1 <0>        -0.9343
      4 O2         -5.6033    6.0079   -6.6134 O.2       1 <0>        -0.9398
      5 N1         -3.6107    7.3649   -7.0015 N.pl3     1 <0>        -0.9382
      6 C2         -2.6763    7.8816   -8.0108 C.3       1 <0>         0.0978
      7 C3         -1.4008    7.0312   -7.9481 C.3       1 <0>        -0.1335
      8 C4         -0.7548    7.2104   -6.5744 C.3       1 <0>        -0.0814
      9 C5         -1.7645    6.9742   -5.4823 C.ar      1 <0>        -0.1046
     10 C6         -3.1270    7.0614   -5.7242 C.ar      1 <0>         0.2086
     11 C7         -4.0321    6.8437   -4.6916 C.ar      1 <0>        -0.1678
     12 C8         -3.5753    6.5324   -3.4264 C.ar      1 <0>        -0.0665
     13 C9         -2.2164    6.4486   -3.1853 C.ar      1 <0>        -0.1719
     14 C10        -1.3149    6.6662   -4.2095 C.ar      1 <0>        -0.0673
     15 C11        -1.7175    6.1131   -1.8034 C.3       1 <0>         0.1416
     16 H1         -0.7083    6.5050   -1.6764 H         1 <0>         0.1296
     17 C12        -1.7014    4.5940   -1.6219 C.3       1 <0>        -0.0425
     18 C13         0.2603    4.4313   -0.2077 C.3       1 <0>        -0.0187
     19 C14         0.6878    4.3831    1.2603 C.3       1 <0>         0.0827
     20 N2          0.1138    3.2072    1.9080 N.am      1 <0>        -0.6037
     21 C15        -0.9245    2.5334    1.4062 C.2       1 <0>         0.4944
     22 O3         -1.3588    1.5866    2.0274 O.2       1 <0>        -0.4754
     23 C16        -1.5758    2.8987    0.1023 C.3       1 <0>        -0.0132
     24 C17         0.7017    2.7451    3.1678 C.3       1 <0>         0.1386
     25 C18         1.1567    1.2774    3.0316 C.3       1 <0>        -0.1336
     26 C19         0.8358    0.6506    4.4112 C.3       1 <0>        -0.1214
     27 C20        -0.5061    1.3254    4.7893 C.3       1 <0>        -0.1195
     28 C21        -0.3556    2.7756    4.2854 C.3       1 <0>        -0.1265
     29 O4         -2.5824    6.7002   -0.8291 O.3       1 <0>        -0.5485
     30 H2         -5.6317    9.5115   -7.2369 H         1 <0>         0.1355
     31 H3         -7.1099    8.5626   -6.9488 H         1 <0>         0.1399
     32 H4         -5.8827    8.7092   -5.6679 H         1 <0>         0.1306
     33 H5         -2.4370    8.9226   -7.7936 H         1 <0>         0.0844
     34 H6         -3.1229    7.8047   -9.0021 H         1 <0>         0.1141
     35 H7         -0.7068    7.3562   -8.7232 H         1 <0>         0.0937
     36 H8         -1.6539    5.9817   -8.0985 H         1 <0>         0.0762
     37 H9         -0.3632    8.2241   -6.4899 H         1 <0>         0.0850
     38 H10         0.0652    6.5005   -6.4665 H         1 <0>         0.0847
     39 H11        -5.0932    6.9141   -4.8801 H         1 <0>         0.1399
     40 H12        -4.2783    6.3588   -2.6251 H         1 <0>         0.1293
     41 H13        -0.2547    6.5962   -4.0163 H         1 <0>         0.1316
     42 H14        -1.0504    4.1453   -2.3722 H         1 <0>         0.1480
     43 H15        -2.7124    4.2035   -1.7376 H         1 <0>         0.1404
     44 H16         0.5416    5.3920   -0.6391 H         1 <0>         0.1509
     45 H17         0.7467    3.6251   -0.7568 H         1 <0>         0.1423
     46 H18         1.7751    4.3337    1.3189 H         1 <0>         0.1261
     47 H19         0.3388    5.2822    1.7683 H         1 <0>         0.0998
     48 H20        -2.6588    2.8370    0.2090 H         1 <0>         0.1630
     49 H21        -1.2498    2.2042   -0.6720 H         1 <0>         0.1620
     50 H22         1.5487    3.3758    3.4378 H         1 <0>         0.1033
     51 H23         0.5945    0.7752    2.2443 H         1 <0>         0.0794
     52 H24         2.2266    1.2269    2.8292 H         1 <0>         0.0697
     53 H25         1.6104    0.8975    5.1372 H         1 <0>         0.0702
     54 H26         0.7147   -0.4293    4.3261 H         1 <0>         0.0727
     55 H27        -0.6498    1.3099    5.8697 H         1 <0>         0.0669
     56 H28        -1.3369    0.8309    4.2859 H         1 <0>         0.0765
     57 H29        -0.0213    3.4205    5.0981 H         1 <0>         0.0731
     58 H30        -1.3059    3.1351    3.8906 H         1 <0>         0.0657
     59 H31        -3.4990    6.3966   -0.8831 H         1 <0>         0.3899
     60 N3         -1.2077    4.2798   -0.2617 N.4       1 <0>        -0.3940
     61 H32        -1.6369    4.9292    0.4078 H         1 <0>         0.4373
@<TRIPOS>BOND
     1    1    2 1
     2    1   30 1
     3    1   31 1
     4    1   32 1
     5    2    3 2
     6    2    4 2
     7    2    5 1
     8    5   10 1
     9    5    6 1
    10    6    7 1
    11    6   33 1
    12    6   34 1
    13    7    8 1
    14    7   35 1
    15    7   36 1
    16    8    9 1
    17    8   37 1
    18    8   38 1
    19    9   14 ar
    20    9   10 ar
    21   10   11 ar
    22   11   12 ar
    23   11   39 1
    24   12   13 ar
    25   12   40 1
    26   13   14 ar
    27   13   15 1
    28   14   41 1
    29   15   16 1
    30   15   17 1
    31   15   29 1
    32   17   42 1
    33   17   43 1
    34   17   60 1
    35   18   19 1
    36   18   44 1
    37   18   45 1
    38   18   60 1
    39   19   20 1
    40   19   46 1
    41   19   47 1
    42   20   21 am
    43   20   24 1
    44   21   22 2
    45   21   23 1
    46   23   48 1
    47   23   49 1
    48   23   60 1
    49   24   28 1
    50   24   25 1
    51   24   50 1
    52   25   26 1
    53   25   51 1
    54   25   52 1
    55   26   27 1
    56   26   53 1
    57   26   54 1
    58   27   28 1
    59   27   55 1
    60   27   56 1
    61   28   57 1
    62   28   58 1
    63   29   59 1
    64   60   61 1
@<TRIPOS>MOLECULE
ZINC12291483
   61    64     0     0     0
SMALL
USER_CHARGES
1-cyclopentyl-4-[(2S)-2-hydroxy-2-(1-methylsulfonyl-3,4-dihydro-2H-quinolin-6-yl)ethyl]piperazin-2-one
@<TRIPOS>ATOM
      1 C1         -2.1315    6.8008   -9.0131 C.3       1 <0>        -0.6700
      2 S1         -2.9427    8.0581   -7.9875 S.o2      1 <0>         2.5955
      3 O1         -3.8260    8.8404   -8.7793 O.2       1 <0>        -0.9337
      4 O2         -1.9928    8.6799   -7.1328 O.2       1 <0>        -0.9368
      5 N1         -3.9314    7.2041   -6.9699 N.pl3     1 <0>        -0.9382
      6 C2         -5.3594    7.0444   -7.2764 C.3       1 <0>         0.0987
      7 C3         -6.1477    7.3013   -5.9854 C.3       1 <0>        -0.1348
      8 C4         -5.7663    6.2397   -4.9539 C.3       1 <0>        -0.0814
      9 C5         -4.2694    6.1562   -4.8121 C.ar      1 <0>        -0.1041
     10 C6         -3.4206    6.6233   -5.8039 C.ar      1 <0>         0.2084
     11 C7         -2.0431    6.5220   -5.6453 C.ar      1 <0>        -0.1679
     12 C8         -1.5192    5.9589   -4.4987 C.ar      1 <0>        -0.0675
     13 C9         -2.3662    5.4961   -3.5086 C.ar      1 <0>        -0.1710
     14 C10        -3.7356    5.5897   -3.6670 C.ar      1 <0>        -0.0666
     15 C11        -1.7944    4.8826   -2.2566 C.3       1 <0>         0.1358
     16 H1         -2.5445    4.9046   -1.4660 H         1 <0>         0.1301
     17 C12        -1.3914    3.4335   -2.5369 C.3       1 <0>        -0.0392
     18 C13        -0.7766    1.3477   -1.4665 C.3       1 <0>        -0.0160
     19 C14        -0.0274    0.7888   -0.2555 C.3       1 <0>         0.0825
     20 N2         -0.6645    1.2427    0.9774 N.am      1 <0>        -0.6050
     21 C15        -1.4965    2.2863    1.0257 C.2       1 <0>         0.4966
     22 O3         -1.9560    2.6151    2.0989 O.2       1 <0>        -0.4739
     23 C16        -1.8889    3.0690   -0.1955 C.3       1 <0>        -0.0211
     24 C17        -0.3771    0.5220    2.2201 C.3       1 <0>         0.1388
     25 C18        -1.6889    0.0075    2.8481 C.3       1 <0>        -0.1335
     26 C19        -1.4702    0.1719    4.3726 C.3       1 <0>        -0.1214
     27 C20        -0.6903    1.5070    4.4640 C.3       1 <0>        -0.1196
     28 C21         0.2578    1.4754    3.2475 C.3       1 <0>        -0.1268
     29 O4         -0.6455    5.6253   -1.8439 O.3       1 <0>        -0.5462
     30 H2         -2.8861    6.2380   -9.5625 H         1 <0>         0.1348
     31 H3         -1.4564    7.2868   -9.7175 H         1 <0>         0.1397
     32 H4         -1.5647    6.1223   -8.3757 H         1 <0>         0.1293
     33 H5         -5.5501    6.0310   -7.6298 H         1 <0>         0.0835
     34 H6         -5.6567    7.7635   -8.0397 H         1 <0>         0.1140
     35 H7         -7.2163    7.2422   -6.1922 H         1 <0>         0.0938
     36 H8         -5.9029    8.2906   -5.5988 H         1 <0>         0.0774
     37 H9         -6.1519    5.2718   -5.2744 H         1 <0>         0.0837
     38 H10        -6.2050    6.5000   -3.9907 H         1 <0>         0.0860
     39 H11        -1.3826    6.8836   -6.4195 H         1 <0>         0.1394
     40 H12        -0.4491    5.8796   -4.3755 H         1 <0>         0.1291
     41 H13        -4.3925    5.2232   -2.8921 H         1 <0>         0.1316
     42 H14        -0.5789    3.4164   -3.2633 H         1 <0>         0.1401
     43 H15        -2.2471    2.8890   -2.9360 H         1 <0>         0.1468
     44 H16        -0.2022    1.1548   -2.3726 H         1 <0>         0.1527
     45 H17        -1.7544    0.8722   -1.5428 H         1 <0>         0.1414
     46 H18        -0.0437   -0.3005   -0.2912 H         1 <0>         0.1260
     47 H19         1.0057    1.1359   -0.2776 H         1 <0>         0.0982
     48 H20        -1.8770    4.1337    0.0379 H         1 <0>         0.1684
     49 H21        -2.8933    2.7790   -0.5038 H         1 <0>         0.1612
     50 H22         0.2947   -0.3128    2.0204 H         1 <0>         0.1028
     51 H23        -2.5333    0.6118    2.5165 H         1 <0>         0.0795
     52 H24        -1.8468   -1.0412    2.5962 H         1 <0>         0.0694
     53 H25        -0.8750   -0.6510    4.7684 H         1 <0>         0.0700
     54 H26        -2.4245    0.2455    4.8940 H         1 <0>         0.0727
     55 H27        -0.1195    1.5526    5.3915 H         1 <0>         0.0669
     56 H28        -1.3734    2.3534    4.3934 H         1 <0>         0.0768
     57 H29         1.2373    1.1028    3.5471 H         1 <0>         0.0728
     58 H30         0.3529    2.4740    2.8213 H         1 <0>         0.0663
     59 H31         0.0644    5.6484   -2.5001 H         1 <0>         0.3891
     60 N3         -0.9248    2.8050   -1.2800 N.4       1 <0>        -0.3920
     61 H32        -0.0143    3.2049   -1.0245 H         1 <0>         0.4368
@<TRIPOS>BOND
     1    1    2 1
     2    1   30 1
     3    1   31 1
     4    1   32 1
     5    2    3 2
     6    2    4 2
     7    2    5 1
     8    5   10 1
     9    5    6 1
    10    6    7 1
    11    6   33 1
    12    6   34 1
    13    7    8 1
    14    7   35 1
    15    7   36 1
    16    8    9 1
    17    8   37 1
    18    8   38 1
    19    9   14 ar
    20    9   10 ar
    21   10   11 ar
    22   11   12 ar
    23   11   39 1
    24   12   13 ar
    25   12   40 1
    26   13   14 ar
    27   13   15 1
    28   14   41 1
    29   15   16 1
    30   15   17 1
    31   15   29 1
    32   17   42 1
    33   17   43 1
    34   17   60 1
    35   18   19 1
    36   18   44 1
    37   18   45 1
    38   18   60 1
    39   19   20 1
    40   19   46 1
    41   19   47 1
    42   20   21 am
    43   20   24 1
    44   21   22 2
    45   21   23 1
    46   23   48 1
    47   23   49 1
    48   23   60 1
    49   24   28 1
    50   24   25 1
    51   24   50 1
    52   25   26 1
    53   25   51 1
    54   25   52 1
    55   26   27 1
    56   26   53 1
    57   26   54 1
    58   27   28 1
    59   27   55 1
    60   27   56 1
    61   28   57 1
    62   28   58 1
    63   29   59 1
    64   60   61 1
@<TRIPOS>MOLECULE
ZINC12895553
   53    56     0     0     0
SMALL
USER_CHARGES
6-[2-[4-(2-hydroxyethyl)piperazin-1-yl]-2-oxo-ethyl]-3,5-dimethyl-furo[3,2-g]chromen-7-one
@<TRIPOS>ATOM
      1 C1          1.9292    0.3335   -4.9304 C.3       1 <0>        -0.0855
      2 C2          1.8377   -1.0229   -4.2801 C.2       1 <0>        -0.1716
      3 C3          1.9486   -2.2129   -4.8833 C.2       1 <0>         0.0165
      4 O1          1.8125   -3.2052   -3.9858 O.3       1 <0>        -0.1838
      5 C4          1.6053   -2.7113   -2.7479 C.ar      1 <0>         0.1152
      6 C5          1.6083   -1.3055   -2.8562 C.ar      1 <0>        -0.1442
      7 C6          1.4168   -0.5129   -1.7334 C.ar      1 <0>         0.0016
      8 C7          1.2152   -1.1212   -0.4943 C.ar      1 <0>        -0.1674
      9 C8          1.0144   -0.3145    0.7134 C.2       1 <0>         0.0629
     10 C9          0.8283   -0.9602    1.8926 C.2       1 <0>        -0.2272
     11 C10         0.8376   -2.3707    1.9293 C.2       1 <0>         0.5269
     12 O2          0.6693   -2.9369    2.9943 O.2       1 <0>        -0.4617
     13 O3          1.0263   -3.1050    0.8223 O.3       1 <0>        -0.2629
     14 C11         1.2178   -2.5273   -0.3852 C.ar      1 <0>         0.1723
     15 C12         1.4098   -3.3086   -1.5115 C.ar      1 <0>        -0.1259
     16 C13         0.6119   -0.1728    3.1592 C.3       1 <0>        -0.0799
     17 C14        -0.8623    0.0740    3.3515 C.2       1 <0>         0.5266
     18 O4         -1.6587   -0.3479    2.5400 O.2       1 <0>        -0.4988
     19 N1         -1.2956    0.7636    4.4254 N.am      1 <0>        -0.6356
     20 C15        -0.3473    1.2788    5.4246 C.3       1 <0>         0.0815
     21 C16        -0.6401    2.7718    5.6422 C.3       1 <0>        -0.0163
     22 C17        -2.9293    2.5140    4.8841 C.3       1 <0>        -0.0169
     23 C18        -2.7298    1.0157    4.6322 C.3       1 <0>         0.0873
     24 C19        -2.3426    4.3305    6.3737 C.3       1 <0>        -0.0006
     25 C20        -3.6408    4.3787    7.1819 C.3       1 <0>         0.0434
     26 O5         -3.4662    3.6635    8.4067 O.3       1 <0>        -0.5816
     27 C21         1.0086    1.1910    0.6462 C.3       1 <0>        -0.1311
     28 H1          0.9371    0.6495   -5.2527 H         1 <0>         0.0743
     29 H2          2.3252    1.0537   -4.2144 H         1 <0>         0.0692
     30 H3          2.5916    0.2783   -5.7943 H         1 <0>         0.0754
     31 H4          2.1225   -2.3556   -5.9396 H         1 <0>         0.2160
     32 H5          1.4194    0.5637   -1.8186 H         1 <0>         0.1466
     33 H6          1.4069   -4.3853   -1.4275 H         1 <0>         0.1572
     34 H7          0.9998   -0.7361    4.0079 H         1 <0>         0.1213
     35 H8          1.1337    0.7814    3.0874 H         1 <0>         0.1135
     36 H9         -0.4732    0.7374    6.3622 H         1 <0>         0.1019
     37 H10         0.6724    1.1536    5.0604 H         1 <0>         0.1319
     38 H11        -0.4183    3.3256    4.7300 H         1 <0>         0.1358
     39 H12        -0.0204    3.1478    6.4563 H         1 <0>         0.1440
     40 H13        -2.6755    3.0714    3.9824 H         1 <0>         0.1356
     41 H14        -3.9699    2.7031    5.1478 H         1 <0>         0.1394
     42 H15        -3.2860    0.7165    3.7439 H         1 <0>         0.1362
     43 H16        -3.0803    0.4495    5.4951 H         1 <0>         0.0958
     44 H17        -1.5223    4.7138    6.9805 H         1 <0>         0.1387
     45 H18        -2.4491    4.9428    5.4782 H         1 <0>         0.1438
     46 H19        -3.8948    5.4160    7.3999 H         1 <0>         0.0963
     47 H20        -4.4448    3.9212    6.6054 H         1 <0>         0.0711
     48 H21        -4.2514    3.6525    8.9710 H         1 <0>         0.4113
     49 H22         2.0213    1.5653    0.7963 H         1 <0>         0.0981
     50 H23         0.6445    1.5097   -0.3305 H         1 <0>         0.0876
     51 H24         0.3559    1.5869    1.4243 H         1 <0>         0.0747
     52 N2         -2.0643    2.9253    6.0111 N.4       1 <0>        -0.3954
     53 H25        -2.2648    2.3262    6.8205 H         1 <0>         0.4364
@<TRIPOS>BOND
     1    1    2 1
     2    1   28 1
     3    1   29 1
     4    1   30 1
     5    2    6 1
     6    2    3 2
     7    3    4 1
     8    3   31 1
     9    4    5 1
    10    5   15 ar
    11    5    6 ar
    12    6    7 ar
    13    7    8 ar
    14    7   32 1
    15    8   14 ar
    16    8    9 1
    17    9   10 2
    18    9   27 1
    19   10   11 1
    20   10   16 1
    21   11   12 2
    22   11   13 1
    23   13   14 1
    24   14   15 ar
    25   15   33 1
    26   16   17 1
    27   16   34 1
    28   16   35 1
    29   17   18 2
    30   17   19 am
    31   19   23 1
    32   19   20 1
    33   20   21 1
    34   20   36 1
    35   20   37 1
    36   21   38 1
    37   21   39 1
    38   21   52 1
    39   22   23 1
    40   22   40 1
    41   22   41 1
    42   22   52 1
    43   23   42 1
    44   23   43 1
    45   24   25 1
    46   24   44 1
    47   24   45 1
    48   24   52 1
    49   25   26 1
    50   25   46 1
    51   25   47 1
    52   26   48 1
    53   27   49 1
    54   27   50 1
    55   27   51 1
    56   52   53 1
@<TRIPOS>MOLECULE
ZINC08582552
   57    61     0     0     0
SMALL
USER_CHARGES
8-methyl-3-[(R)-morpholino-[1-[[(2R)-tetrahydrofuran-2-yl]methyl]tetrazol-5-yl]methyl]quinolin-2-ol
@<TRIPOS>ATOM
      1 C1          1.1743   -2.1971   -0.0205 C.3       1 <0>        -0.1172
      2 C2          1.1781   -0.6902   -0.0124 C.ar      1 <0>        -0.0548
      3 C3          0.0021   -0.0041    0.0020 C.ar      1 <0>        -0.0823
      4 C4         -0.0168    1.3884    0.0097 C.ar      1 <0>        -0.0871
      5 C5          1.1430    2.1028    0.0024 C.ar      1 <0>        -0.1046
      6 C6          2.3734    1.4282   -0.0129 C.ar      1 <0>        -0.0965
      7 C7          2.3951    0.0120   -0.0202 C.ar      1 <0>         0.1632
      8 N1          3.5651   -0.6369   -0.0340 N.ar      1 <0>        -0.4515
      9 C8          4.7073    0.0153   -0.0417 C.ar      1 <0>         0.3550
     10 C9          4.7531    1.4149   -0.0350 C.ar      1 <0>        -0.2034
     11 C10         3.5944    2.1325   -0.0207 C.ar      1 <0>        -0.0289
     12 C11         6.0814    2.1266   -0.0443 C.3       1 <0>         0.1979
     13 H1          6.7671    1.6075   -0.7138 H         1 <0>         0.1797
     14 C12         6.6539    2.1398    1.3497 C.2       1 <0>         0.1300
     15 N2          6.2665    2.8960    2.3477 N.2       1 <0>        -0.2813
     16 N3          6.9974    2.6111    3.3698 N.2       1 <0>        -0.0440
     17 N4          7.8462    1.6984    3.0475 N.2       1 <0>        -0.0500
     18 N5          7.6663    1.3815    1.8098 N.pl3     1 <0>        -0.2737
     19 C13         8.4215    0.3833    1.0486 C.3       1 <0>         0.0831
     20 C14         9.6271    1.0526    0.3856 C.3       1 <0>         0.0672
     21 H2         10.2377    1.5577    1.1340 H         1 <0>         0.0966
     22 C15        10.4708    0.0031   -0.3809 C.3       1 <0>        -0.1468
     23 C16        11.1708    0.9017   -1.4367 C.3       1 <0>        -0.1547
     24 C17        10.0909    1.9655   -1.7292 C.3       1 <0>         0.0488
     25 O1          9.1911    1.9866   -0.6149 O.3       1 <0>        -0.4027
     26 C18         5.2561    3.5349   -1.8339 C.3       1 <0>        -0.0526
     27 C19         5.0258    4.9892   -2.2533 C.3       1 <0>         0.0389
     28 O2          6.2738    5.6875   -2.2389 O.3       1 <0>        -0.3512
     29 C20         6.9223    5.6812   -0.9642 C.3       1 <0>         0.0392
     30 C21         7.1718    4.2339   -0.5318 C.3       1 <0>        -0.0356
     31 O3          5.8684   -0.6844   -0.0565 O.3       1 <0>        -0.4778
     32 H3          1.1641   -2.5549   -1.0501 H         1 <0>         0.0808
     33 H4          2.0681   -2.5654    0.4832 H         1 <0>         0.0802
     34 H5          0.2882   -2.5611    0.4995 H         1 <0>         0.0760
     35 H6         -0.9308   -0.5483    0.0080 H         1 <0>         0.1446
     36 H7         -0.9632    1.9086    0.0170 H         1 <0>         0.1426
     37 H8          1.1158    3.1824    0.0088 H         1 <0>         0.1401
     38 H9          3.6113    3.2123   -0.0157 H         1 <0>         0.1412
     39 H10         8.7664   -0.4020    1.7212 H         1 <0>         0.1452
     40 H11         7.7798   -0.0508    0.2819 H         1 <0>         0.1339
     41 H12        11.1995   -0.4711    0.2765 H         1 <0>         0.1003
     42 H13         9.8330   -0.7405   -0.8588 H         1 <0>         0.0917
     43 H14        11.4075    0.3319   -2.3353 H         1 <0>         0.0948
     44 H15        12.0681    1.3630   -1.0243 H         1 <0>         0.0857
     45 H16         9.5488    1.7021   -2.6374 H         1 <0>         0.0792
     46 H17        10.5576    2.9436   -1.8462 H         1 <0>         0.0794
     47 H18         5.9043    3.0448   -2.5604 H         1 <0>         0.1498
     48 H19         4.3000    3.0135   -1.7883 H         1 <0>         0.1443
     49 H20         4.3350    5.4639   -1.5565 H         1 <0>         0.0835
     50 H21         4.6054    5.0159   -3.2586 H         1 <0>         0.1480
     51 H22         6.2866    6.1760   -0.2300 H         1 <0>         0.0841
     52 H23         7.8736    6.2084   -1.0372 H         1 <0>         0.1455
     53 H24         7.6141    4.2228    0.4644 H         1 <0>         0.1321
     54 H25         7.8506    3.7550   -1.2375 H         1 <0>         0.1527
     55 H26         6.2138   -0.8919    0.8226 H         1 <0>         0.4004
     56 N6          5.8774    3.5210   -0.4931 N.4       1 <0>        -0.3894
     57 H27         5.2535    3.9968    0.1692 H         1 <0>         0.4305
@<TRIPOS>BOND
     1    1    2 1
     2    1   32 1
     3    1   33 1
     4    1   34 1
     5    2    7 ar
     6    2    3 ar
     7    3    4 ar
     8    3   35 1
     9    4    5 ar
    10    4   36 1
    11    5    6 ar
    12    5   37 1
    13    6   11 ar
    14    6    7 ar
    15    7    8 ar
    16    8    9 ar
    17    9   10 ar
    18    9   31 1
    19   10   11 ar
    20   10   12 1
    21   11   38 1
    22   12   13 1
    23   12   14 1
    24   12   56 1
    25   14   18 1
    26   14   15 2
    27   15   16 1
    28   16   17 2
    29   17   18 1
    30   18   19 1
    31   19   20 1
    32   19   39 1
    33   19   40 1
    34   20   21 1
    35   20   25 1
    36   20   22 1
    37   22   23 1
    38   22   41 1
    39   22   42 1
    40   23   24 1
    41   23   43 1
    42   23   44 1
    43   24   25 1
    44   24   45 1
    45   24   46 1
    46   26   27 1
    47   26   47 1
    48   26   48 1
    49   26   56 1
    50   27   28 1
    51   27   49 1
    52   27   50 1
    53   28   29 1
    54   29   30 1
    55   29   51 1
    56   29   52 1
    57   30   53 1
    58   30   54 1
    59   30   56 1
    60   31   55 1
    61   56   57 1
@<TRIPOS>MOLECULE
ZINC08617179
   57    61     0     0     0
SMALL
USER_CHARGES
8-methyl-3-[(S)-morpholino-[1-[[(2S)-tetrahydrofuran-2-yl]methyl]tetrazol-5-yl]methyl]quinolin-2-ol
@<TRIPOS>ATOM
      1 C1         -1.3744    8.3014    0.3543 C.3       1 <0>        -0.1155
      2 C2         -0.6438    7.6904   -0.8136 C.ar      1 <0>        -0.0611
      3 C3         -0.0040    8.4882   -1.7125 C.ar      1 <0>        -0.0761
      4 C4          0.6764    7.9441   -2.7988 C.ar      1 <0>        -0.0929
      5 C5          0.7203    6.5963   -2.9917 C.ar      1 <0>        -0.0937
      6 C6          0.0719    5.7441   -2.0848 C.ar      1 <0>        -0.1093
      7 C7         -0.6209    6.2953   -0.9792 C.ar      1 <0>         0.1667
      8 N1         -1.2407    5.4879   -0.1108 N.ar      1 <0>        -0.4563
      9 C8         -1.2221    4.1813   -0.2606 C.ar      1 <0>         0.3464
     10 C9         -0.5545    3.5751   -1.3322 C.ar      1 <0>        -0.2358
     11 C10         0.1001    4.3442   -2.2474 C.ar      1 <0>         0.0207
     12 C11        -0.5546    2.0744   -1.4695 C.3       1 <0>         0.1966
     13 H1         -1.5599    1.6932   -1.2903 H         1 <0>         0.1675
     14 C12        -0.1150    1.6972   -2.8608 C.2       1 <0>         0.1168
     15 N2          1.0989    1.7815   -3.3478 N.2       1 <0>        -0.2844
     16 N3          1.0684    1.3658   -4.5669 N.2       1 <0>        -0.0492
     17 N4         -0.1335    1.0184   -4.8702 N.2       1 <0>        -0.0297
     18 N5         -0.8917    1.2030   -3.8427 N.pl3     1 <0>        -0.2620
     19 C13        -2.3286    0.9293   -3.7612 C.3       1 <0>         0.0837
     20 C14        -3.1098    2.2039   -4.0872 C.3       1 <0>         0.0634
     21 H2         -2.8279    2.9974   -3.3951 H         1 <0>         0.0877
     22 C15        -4.6256    1.9300   -3.9837 C.3       1 <0>        -0.1477
     23 C16        -5.1897    2.7415   -5.1817 C.3       1 <0>        -0.1553
     24 C17        -4.0417    2.5837   -6.2103 C.3       1 <0>         0.0465
     25 O1         -2.8345    2.6118   -5.4324 O.3       1 <0>        -0.3675
     26 C18         1.7212    2.0560   -0.6403 C.3       1 <0>        -0.0615
     27 C19         2.6373    1.4686    0.4365 C.3       1 <0>         0.0417
     28 O2          2.6313    0.0421    0.3340 O.3       1 <0>        -0.3510
     29 C20         1.3329   -0.5400    0.4775 C.3       1 <0>         0.0406
     30 C21         0.4036    0.0271   -0.5989 C.3       1 <0>        -0.0451
     31 O3         -1.8643    3.4025    0.6444 O.3       1 <0>        -0.4761
     32 H3         -0.6930    8.3959    1.1999 H         1 <0>         0.0793
     33 H4         -1.7457    9.2874    0.0750 H         1 <0>         0.0752
     34 H5         -2.2127    7.6628    0.6328 H         1 <0>         0.0804
     35 H6         -0.0249    9.5600   -1.5811 H         1 <0>         0.1447
     36 H7          1.1755    8.5991   -3.4976 H         1 <0>         0.1428
     37 H8          1.2511    6.1859   -3.8380 H         1 <0>         0.1399
     38 H9          0.6236    3.8931   -3.0773 H         1 <0>         0.1545
     39 H10        -2.5911    0.1494   -4.4760 H         1 <0>         0.1365
     40 H11        -2.5787    0.5977   -2.7534 H         1 <0>         0.1240
     41 H12        -4.8367    0.8671   -4.1013 H         1 <0>         0.0898
     42 H13        -5.0237    2.3036   -3.0403 H         1 <0>         0.0951
     43 H14        -5.3358    3.7878   -4.9134 H         1 <0>         0.0842
     44 H15        -6.1145    2.3012   -5.5545 H         1 <0>         0.0961
     45 H16        -4.0536    3.4108   -6.9203 H         1 <0>         0.0957
     46 H17        -4.1309    1.6332   -6.7363 H         1 <0>         0.0709
     47 H18         2.1116    1.8054   -1.6267 H         1 <0>         0.1697
     48 H19         1.6779    3.1395   -0.5298 H         1 <0>         0.1371
     49 H20         2.2770    1.7642    1.4218 H         1 <0>         0.0802
     50 H21         3.6522    1.8395    0.2930 H         1 <0>         0.1452
     51 H22         0.9347   -0.3027    1.4640 H         1 <0>         0.0852
     52 H23         1.4037   -1.6217    0.3641 H         1 <0>         0.1445
     53 H24        -0.6016   -0.3704   -0.4582 H         1 <0>         0.1437
     54 H25         0.7729   -0.2559   -1.5846 H         1 <0>         0.1351
     55 H26        -1.3133    3.1318    1.3916 H         1 <0>         0.3996
     56 N6          0.3640    1.4987   -0.4634 N.4       1 <0>        -0.3851
     57 H27         0.0239    1.7388    0.4751 H         1 <0>         0.4275
@<TRIPOS>BOND
     1    1    2 1
     2    1   32 1
     3    1   33 1
     4    1   34 1
     5    2    7 ar
     6    2    3 ar
     7    3    4 ar
     8    3   35 1
     9    4    5 ar
    10    4   36 1
    11    5    6 ar
    12    5   37 1
    13    6   11 ar
    14    6    7 ar
    15    7    8 ar
    16    8    9 ar
    17    9   10 ar
    18    9   31 1
    19   10   11 ar
    20   10   12 1
    21   11   38 1
    22   12   13 1
    23   12   14 1
    24   12   56 1
    25   14   18 1
    26   14   15 2
    27   15   16 1
    28   16   17 2
    29   17   18 1
    30   18   19 1
    31   19   20 1
    32   19   39 1
    33   19   40 1
    34   20   21 1
    35   20   25 1
    36   20   22 1
    37   22   23 1
    38   22   41 1
    39   22   42 1
    40   23   24 1
    41   23   43 1
    42   23   44 1
    43   24   25 1
    44   24   45 1
    45   24   46 1
    46   26   27 1
    47   26   47 1
    48   26   48 1
    49   26   56 1
    50   27   28 1
    51   27   49 1
    52   27   50 1
    53   28   29 1
    54   29   30 1
    55   29   51 1
    56   29   52 1
    57   30   53 1
    58   30   54 1
    59   30   56 1
    60   31   55 1
    61   56   57 1
@<TRIPOS>MOLECULE
ZINC19301116
   54    58     0     0     0
SMALL
USER_CHARGES
5-[5-[(3R)-1-(2-furylmethyl)-3-piperidyl]-1,2,4-oxadiazol-3-yl]-6-methyl-1,2,3,4-tetrahydro-2,7-naphthyridine
@<TRIPOS>ATOM
      1 C1         -0.6429   -4.0516    4.2073 C.3       1 <0>        -0.1681
      2 C2         -0.2566   -5.3561    3.5591 C.ar      1 <0>         0.2133
      3 C3          0.3906   -5.3506    2.3256 C.ar      1 <0>        -0.0702
      4 C4          0.7462   -6.5716    1.7433 C.ar      1 <0>        -0.0053
      5 C5          0.4398   -7.7362    2.4140 C.ar      1 <0>        -0.2100
      6 C6         -0.2122   -7.6581    3.6351 C.ar      1 <0>         0.1619
      7 N1         -0.5375   -6.4938    4.1606 N.ar      1 <0>        -0.4725
      8 C7          0.7976   -9.0882    1.8588 C.3       1 <0>         0.0620
      9 N2          1.0840   -8.9912    0.4233 N.4       1 <0>        -0.5369
     10 C8          2.0885   -7.9461    0.1704 C.3       1 <0>         0.0014
     11 C9          1.4423   -6.5803    0.4100 C.3       1 <0>        -0.1166
     12 C10         0.7032   -4.0700    1.6434 C.2       1 <0>         0.2178
     13 N3          0.4158   -2.8286    2.0958 N.2       1 <0>        -0.4670
     14 C11         0.8690   -2.0074    1.1816 C.2       1 <0>         0.2214
     15 O1          1.4052   -2.7551    0.2120 O.3       1 <0>         0.0858
     16 N4          1.3081   -3.9311    0.4925 N.2       1 <0>        -0.3793
     17 C12         0.7943   -0.5026    1.2138 C.3       1 <0>         0.0024
     18 H1          0.2921   -0.1979    2.1438 H         1 <0>         0.1349
     19 C13         0.0021   -0.0041    0.0020 C.3       1 <0>        -0.1191
     20 C14        -0.0187    1.5270    0.0104 C.3       1 <0>        -0.1152
     21 C15         1.4188    2.0518   -0.0005 C.3       1 <0>         0.0462
     22 N5          2.1343    1.5477    1.1786 N.3       1 <0>        -0.5302
     23 C16         2.2082    0.0811    1.1680 C.3       1 <0>         0.0594
     24 C17         3.4744    2.1416    1.2751 C.3       1 <0>         0.1380
     25 C18         3.3507    3.6218    1.5298 C.2       1 <0>        -0.0203
     26 C19         3.2851    4.2093    2.7381 C.2       1 <0>        -0.1819
     27 C20         3.1783    5.6008    2.5117 C.2       1 <0>        -0.2154
     28 C21         3.1766    5.7797    1.1785 C.2       1 <0>        -0.0337
     29 O2          3.2812    4.5776    0.5889 O.3       1 <0>        -0.1790
     30 H2         -0.3300   -3.2158    3.5642 H         1 <0>         0.1430
     31 H3         -0.1469   -3.9672    5.1855 H         1 <0>         0.0895
     32 H4         -1.7337   -4.0196    4.3453 H         1 <0>         0.0894
     33 H5         -0.4574   -8.5667    4.1650 H         1 <0>         0.1737
     34 H6          1.6883   -9.4733    2.3769 H         1 <0>         0.1408
     35 H7         -0.0431   -9.7811    2.0106 H         1 <0>         0.1466
     36 H8          1.4706   -9.9550    0.0606 H         1 <0>         0.4617
     37 H9          2.9398   -8.0828    0.8535 H         1 <0>         0.1318
     38 H10         2.4382   -8.0177   -0.8701 H         1 <0>         0.1439
     39 H11         0.7109   -6.3796   -0.3868 H         1 <0>         0.1137
     40 H12         2.2205   -5.8030    0.3976 H         1 <0>         0.1381
     41 H13         0.4808   -0.3621   -0.9214 H         1 <0>         0.0743
     42 H14        -1.0275   -0.3879    0.0539 H         1 <0>         0.0777
     43 H15        -0.5507    1.8913   -0.8808 H         1 <0>         0.0820
     44 H16        -0.5336    1.8818    0.9154 H         1 <0>         0.0809
     45 H17         1.9279    1.7074   -0.9127 H         1 <0>         0.0419
     46 H18         1.4078    3.1515    0.0203 H         1 <0>         0.0874
     47 H19         2.7756   -0.2633    2.0452 H         1 <0>         0.0883
     48 H20         2.7135   -0.2535    0.2500 H         1 <0>         0.0506
     49 H21         4.0249    1.6717    2.1035 H         1 <0>         0.1084
     50 H22         4.0177    1.9758    0.3331 H         1 <0>         0.0568
     51 H23         3.3115    3.7134    3.6972 H         1 <0>         0.1480
     52 H24         3.1073    6.3718    3.2647 H         1 <0>         0.1496
     53 H25         3.1038    6.7291    0.6688 H         1 <0>         0.2038
     54 H26         0.1605   -8.7392   -0.1187 H         1 <0>         0.4541
@<TRIPOS>BOND
     1    1    2 1
     2    1   30 1
     3    1   31 1
     4    1   32 1
     5    2    7 ar
     6    2    3 ar
     7    3    4 ar
     8    3   12 1
     9    4   11 1
    10    4    5 ar
    11    5    6 ar
    12    5    8 1
    13    6    7 ar
    14    6   33 1
    15    8    9 1
    16    8   34 1
    17    8   35 1
    18    9   10 1
    19    9   36 1
    20    9   54 1
    21   10   11 1
    22   10   37 1
    23   10   38 1
    24   11   39 1
    25   11   40 1
    26   12   16 2
    27   12   13 1
    28   13   14 2
    29   14   15 1
    30   14   17 1
    31   15   16 1
    32   17   18 1
    33   17   23 1
    34   17   19 1
    35   19   20 1
    36   19   41 1
    37   19   42 1
    38   20   21 1
    39   20   43 1
    40   20   44 1
    41   21   22 1
    42   21   45 1
    43   21   46 1
    44   22   23 1
    45   22   24 1
    46   23   47 1
    47   23   48 1
    48   24   25 1
    49   24   49 1
    50   24   50 1
    51   25   29 1
    52   25   26 2
    53   26   27 1
    54   26   51 1
    55   27   28 2
    56   27   52 1
    57   28   29 1
    58   28   53 1
@<TRIPOS>MOLECULE
ZINC19960823
   56    60     0     0     0
SMALL
USER_CHARGES
methyl 2-(trioxo-diphenyl-BLAHyl)acetate
@<TRIPOS>ATOM
      1 C1         -4.2757    5.1628   -0.1697 C.3       1 <0>         0.0381
      2 O1         -3.1667    4.9000    0.7300 O.3       1 <0>        -0.3504
      3 C2         -1.9555    4.7404    0.1738 C.2       1 <0>         0.4406
      4 O2         -1.8262    4.8178   -1.0250 O.2       1 <0>        -0.4291
      5 C3         -0.7568    4.4648    1.0446 C.3       1 <0>        -0.1523
      6 C4          0.4115    4.0012    0.1723 C.3       1 <0>         0.0892
      7 C5          0.1740    2.5689   -0.3104 C.3       1 <0>        -0.1144
      8 H1          0.5482    2.4283   -1.3352 H         1 <0>         0.1828
      9 C6          0.7912    1.6920    0.8236 C.3       1 <0>        -0.1256
     10 H2          1.5321    0.9372    0.5214 H         1 <0>         0.1814
     11 C7          1.3998    2.7089    1.8255 C.3       1 <0>         0.0908
     12 H3          0.7634    2.9561    2.6880 H         1 <0>         0.1595
     13 N1          1.6460    3.8932    0.9958 N.4       1 <0>        -0.4050
     14 C8          1.8726    5.1666    1.6597 C.3       1 <0>        -0.0382
     15 C9          2.2918    6.1781    0.5831 C.3       1 <0>         0.0922
     16 N2          1.5128    6.0335   -0.6397 N.am      1 <0>        -0.7479
     17 C10         0.6770    5.0087   -0.8972 C.2       1 <0>         0.5126
     18 O3          0.1476    4.9056   -1.9835 O.2       1 <0>        -0.4172
     19 C11         2.6888    2.1815    2.4012 C.ar      1 <0>        -0.1447
     20 C12         3.8589    2.2685    1.6703 C.ar      1 <0>        -0.1242
     21 C13         5.0422    1.7891    2.2004 C.ar      1 <0>        -0.0981
     22 C14         5.0534    1.2132    3.4570 C.ar      1 <0>        -0.0847
     23 C15         3.8823    1.1214    4.1857 C.ar      1 <0>        -0.0995
     24 C16         2.7000    1.6056    3.6578 C.ar      1 <0>        -0.0732
     25 C17        -0.4150    1.0357    1.4511 C.2       1 <0>         0.5286
     26 O4         -0.3883    0.2924    2.4084 O.2       1 <0>        -0.4255
     27 N3         -1.5170    1.3966    0.7841 N.am      1 <0>        -0.5200
     28 C18        -1.3020    2.2470   -0.2256 C.2       1 <0>         0.5138
     29 O5         -2.1575    2.6876   -0.9630 O.2       1 <0>        -0.3944
     30 C19        -2.7942    0.9253    1.1192 C.ar      1 <0>         0.0869
     31 C20        -3.5362    1.5661    2.1021 C.ar      1 <0>        -0.0927
     32 C21        -4.7965    1.1029    2.4261 C.ar      1 <0>        -0.1060
     33 C22        -5.3148   -0.0045    1.7802 C.ar      1 <0>        -0.0920
     34 C23        -4.5755   -0.6486    0.8052 C.ar      1 <0>        -0.1049
     35 C24        -3.3170   -0.1866    0.4729 C.ar      1 <0>        -0.0921
     36 H4         -5.2024    5.2719    0.4128 H         1 <0>         0.1102
     37 H5         -4.3822    4.3252   -0.8748 H         1 <0>         0.0750
     38 H6         -4.0825    6.0903   -0.7286 H         1 <0>         0.0686
     39 H7         -0.4732    5.3832    1.5794 H         1 <0>         0.1467
     40 H8         -1.0054    3.6785    1.7726 H         1 <0>         0.1260
     41 H9          0.9455    5.4925    2.1540 H         1 <0>         0.1395
     42 H10         2.6679    5.0521    2.4109 H         1 <0>         0.1651
     43 H11         2.1453    7.1999    0.9631 H         1 <0>         0.1271
     44 H12         3.3524    6.0286    0.3326 H         1 <0>         0.1055
     45 H13         1.5854    6.7939   -1.4313 H         1 <0>         0.4578
     46 H14         3.8493    2.7144    0.6867 H         1 <0>         0.1178
     47 H15         5.9571    1.8604    1.6309 H         1 <0>         0.1395
     48 H16         5.9770    0.8346    3.8693 H         1 <0>         0.1393
     49 H17         3.8910    0.6712    5.1674 H         1 <0>         0.1408
     50 H18         1.7850    1.5336    4.2270 H         1 <0>         0.1371
     51 H19        -3.1303    2.4286    2.6097 H         1 <0>         0.1238
     52 H20        -5.3762    1.6039    3.1872 H         1 <0>         0.1374
     53 H21        -6.2988   -0.3673    2.0382 H         1 <0>         0.1367
     54 H22        -4.9827   -1.5135    0.3027 H         1 <0>         0.1381
     55 H23        -2.7400   -0.6900   -0.2887 H         1 <0>         0.1280
     56 H24         2.6070    3.7422    0.4823 H         1 <0>         0.4556
@<TRIPOS>BOND
     1    1    2 1
     2    1   36 1
     3    1   37 1
     4    1   38 1
     5    2    3 1
     6    3    4 2
     7    3    5 1
     8    5    6 1
     9    5   39 1
    10    5   40 1
    11    6   13 1
    12    6   17 1
    13    6    7 1
    14    7    8 1
    15    7   28 1
    16    7    9 1
    17    9   10 1
    18    9   11 1
    19    9   25 1
    20   11   12 1
    21   11   13 1
    22   11   19 1
    23   13   14 1
    24   13   56 1
    25   14   15 1
    26   14   41 1
    27   14   42 1
    28   15   16 1
    29   15   43 1
    30   15   44 1
    31   16   17 am
    32   16   45 1
    33   17   18 2
    34   19   24 ar
    35   19   20 ar
    36   20   21 ar
    37   20   46 1
    38   21   22 ar
    39   21   47 1
    40   22   23 ar
    41   22   48 1
    42   23   24 ar
    43   23   49 1
    44   24   50 1
    45   25   26 2
    46   25   27 am
    47   27   28 am
    48   27   30 1
    49   28   29 2
    50   30   35 ar
    51   30   31 ar
    52   31   32 ar
    53   31   51 1
    54   32   33 ar
    55   32   52 1
    56   33   34 ar
    57   33   53 1
    58   34   35 ar
    59   34   54 1
    60   35   55 1
@<TRIPOS>MOLECULE
ZINC20414523
   61    64     0     0     0
SMALL
USER_CHARGES
N-[3-(4-methylpiperazin-1-yl)propyl]-12-oxo-7,8,9,10-tetrahydro-6H-azepino[2,1-b]quinazoline-3-carboxamide
@<TRIPOS>ATOM
      1 C1          8.9325   -8.7199   -1.0540 C.3       1 <0>        -0.0454
      2 N1          7.5385   -8.2566   -1.0404 N.4       1 <0>        -0.4030
      3 C2          6.8747   -8.6210    0.2190 C.3       1 <0>         0.0000
      4 C3          5.4066   -8.1921    0.1615 C.3       1 <0>         0.0239
      5 N2          5.3311   -6.7429   -0.0702 N.3       1 <0>        -0.5393
      6 C4          5.9949   -6.3785   -1.3297 C.3       1 <0>         0.0185
      7 C5          7.4630   -6.8074   -1.2721 C.3       1 <0>         0.0001
      8 C6          3.9371   -6.2795   -0.0566 C.3       1 <0>         0.0560
      9 C7          3.9082   -4.7498   -0.0501 C.3       1 <0>        -0.1304
     10 C8          2.4564   -4.2672   -0.0360 C.3       1 <0>         0.1213
     11 N3          2.4287   -2.8025   -0.0298 N.am      1 <0>        -0.7385
     12 C9          1.2490   -2.1509   -0.0172 C.2       1 <0>         0.5617
     13 O1          0.2083   -2.7783   -0.0110 O.2       1 <0>        -0.5259
     14 C10         1.2210   -0.6705   -0.0109 C.ar      1 <0>        -0.0923
     15 C11         2.4234    0.0473   -0.0186 C.ar      1 <0>        -0.1154
     16 C12         2.4165    1.4132   -0.0134 C.ar      1 <0>        -0.0425
     17 C13         1.2047    2.1002    0.0018 C.ar      1 <0>        -0.1802
     18 C14        -0.0169    1.3922    0.0097 C.ar      1 <0>         0.1594
     19 C15         0.0021   -0.0041    0.0020 C.ar      1 <0>        -0.0477
     20 N4         -1.1823    2.0853    0.0302 N.2       1 <0>        -0.5241
     21 C16        -1.2105    3.3838    0.0506 C.2       1 <0>         0.4114
     22 N5         -0.0749    4.1446    0.0415 N.am      1 <0>        -0.5412
     23 C17         1.1460    3.5722    0.0127 C.2       1 <0>         0.5479
     24 O2          2.1597    4.2454   -0.0041 O.2       1 <0>        -0.5058
     25 C18        -0.2123    5.6058    0.0645 C.3       1 <0>         0.0854
     26 C19        -0.6247    6.0478    1.4669 C.3       1 <0>        -0.1372
     27 C20        -2.1372    6.0694    1.6111 C.3       1 <0>        -0.1277
     28 C21        -2.7437    4.6822    1.4967 C.3       1 <0>        -0.1201
     29 C22        -2.5402    4.1042    0.0986 C.3       1 <0>        -0.0800
     30 H1          8.9598   -9.8055   -0.8786 H         1 <0>         0.1249
     31 H2          9.4973   -8.2062   -0.2621 H         1 <0>         0.1200
     32 H3          9.3841   -8.4949   -2.0315 H         1 <0>         0.1248
     33 H4          6.9342   -9.7099    0.3631 H         1 <0>         0.1367
     34 H5          7.3737   -8.1124    1.0570 H         1 <0>         0.1350
     35 H6          4.9016   -8.7225   -0.6593 H         1 <0>         0.0622
     36 H7          4.9151   -8.4382    1.1143 H         1 <0>         0.1247
     37 H8          5.4959   -6.8872   -2.1677 H         1 <0>         0.0621
     38 H9          5.9354   -5.2896   -1.4739 H         1 <0>         0.1252
     39 H10         7.9687   -6.2780   -0.4511 H         1 <0>         0.1348
     40 H11         7.9553   -6.5622   -2.2247 H         1 <0>         0.1361
     41 H12         3.4181   -6.6522   -0.9520 H         1 <0>         0.0522
     42 H13         3.4331   -6.6596    0.8442 H         1 <0>         0.0943
     43 H14         4.4272   -4.3771    0.8453 H         1 <0>         0.0854
     44 H15         4.4122   -4.3697   -0.9509 H         1 <0>         0.0715
     45 H16         1.9374   -4.6400   -0.9314 H         1 <0>         0.0694
     46 H17         1.9524   -4.6473    0.8648 H         1 <0>         0.0726
     47 H18         3.3707   -2.2346   -0.0354 H         1 <0>         0.4211
     48 H19         3.3639   -0.4835   -0.0283 H         1 <0>         0.1331
     49 H20         3.3483    1.9592   -0.0207 H         1 <0>         0.1447
     50 H21        -0.9231   -0.5612    0.0058 H         1 <0>         0.1545
     51 H22         0.7495    6.0687   -0.2012 H         1 <0>         0.1086
     52 H23        -0.9800    5.9134   -0.6608 H         1 <0>         0.0990
     53 H24        -0.2106    5.3486    2.2083 H         1 <0>         0.0696
     54 H25        -0.2384    7.0593    1.6610 H         1 <0>         0.0889
     55 H26        -2.4058    6.4797    2.5957 H         1 <0>         0.0762
     56 H27        -2.5720    6.6988    0.8206 H         1 <0>         0.0728
     57 H28        -2.2660    4.0119    2.2264 H         1 <0>         0.0677
     58 H29        -3.8233    4.7361    1.7003 H         1 <0>         0.0878
     59 H30        -2.5437    4.9171   -0.6424 H         1 <0>         0.1008
     60 H31        -3.3497    3.3955   -0.1307 H         1 <0>         0.1136
     61 H32         7.0081   -8.7601   -1.8620 H         1 <0>         0.4408
@<TRIPOS>BOND
     1    1    2 1
     2    1   30 1
     3    1   31 1
     4    1   32 1
     5    2    7 1
     6    2    3 1
     7    2   61 1
     8    3    4 1
     9    3   33 1
    10    3   34 1
    11    4    5 1
    12    4   35 1
    13    4   36 1
    14    5    6 1
    15    5    8 1
    16    6    7 1
    17    6   37 1
    18    6   38 1
    19    7   39 1
    20    7   40 1
    21    8    9 1
    22    8   41 1
    23    8   42 1
    24    9   10 1
    25    9   43 1
    26    9   44 1
    27   10   11 1
    28   10   45 1
    29   10   46 1
    30   11   12 am
    31   11   47 1
    32   12   13 2
    33   12   14 1
    34   14   19 ar
    35   14   15 ar
    36   15   16 ar
    37   15   48 1
    38   16   17 ar
    39   16   49 1
    40   17   23 1
    41   17   18 ar
    42   18   19 ar
    43   18   20 1
    44   19   50 1
    45   20   21 2
    46   21   29 1
    47   21   22 1
    48   22   23 am
    49   22   25 1
    50   23   24 2
    51   25   26 1
    52   25   51 1
    53   25   52 1
    54   26   27 1
    55   26   53 1
    56   26   54 1
    57   27   28 1
    58   27   55 1
    59   27   56 1
    60   28   29 1
    61   28   57 1
    62   28   58 1
    63   29   59 1
    64   29   60 1
@<TRIPOS>MOLECULE
ZINC20531847
   61    63     0     0     0
SMALL
USER_CHARGES
8-acetyl-2-methyl-N-[3-(4-methylpiperazin-1-yl)propyl]-3-oxo-4-oxa-8-azaspiro[4.5]dec-1-ene-1-carboxamide
@<TRIPOS>ATOM
      1 C1         -1.2561    2.1956    0.0202 C.3       1 <0>        -0.1276
      2 C2         -0.0161    1.3392    0.0094 C.2       1 <0>        -0.0837
      3 C3          0.0021   -0.0041    0.0020 C.2       1 <0>        -0.1751
      4 C4          1.4531   -0.4185   -0.0141 C.3       1 <0>         0.1347
      5 C5          1.7503   -1.2295   -1.2749 C.3       1 <0>        -0.1330
      6 C6          3.2368   -1.6002   -1.3020 C.3       1 <0>         0.1041
      7 N1          3.5773   -2.2796   -0.0445 N.am      1 <0>        -0.6164
      8 C7          3.2608   -1.6141    1.2266 C.3       1 <0>         0.1079
      9 C8          1.7743   -1.2431    1.2320 C.3       1 <0>        -0.1306
     10 C9          4.1693   -3.4904   -0.0568 C.2       1 <0>         0.5134
     11 O1          4.4458   -4.0408    0.9880 O.2       1 <0>        -0.5400
     12 C10         4.4876   -4.1602   -1.3686 C.3       1 <0>        -0.1789
     13 O2          2.2300    0.8088   -0.0149 O.3       1 <0>        -0.3006
     14 C11         1.3672    1.8418   -0.0011 C.2       1 <0>         0.4945
     15 O3          1.6832    3.0144    0.0018 O.2       1 <0>        -0.4220
     16 C12        -1.1708   -0.9015    0.0091 C.2       1 <0>         0.5874
     17 O4         -2.2929   -0.4348    0.0226 O.2       1 <0>        -0.5105
     18 N2         -0.9968   -2.2379    0.0007 N.am      1 <0>        -0.7362
     19 C13        -2.1603   -3.1281    0.0078 C.3       1 <0>         0.1191
     20 C14        -1.6889   -4.5837   -0.0042 C.3       1 <0>        -0.1319
     21 C15        -2.9040   -5.5134    0.0032 C.3       1 <0>         0.0567
     22 N3         -2.4514   -6.9108   -0.0083 N.3       1 <0>        -0.5392
     23 C16        -1.7749   -7.2349   -1.2720 C.3       1 <0>         0.0190
     24 C17        -1.2500   -8.6714   -1.2128 C.3       1 <0>        -0.0006
     25 N4         -2.3707   -9.5900   -0.9680 N.4       1 <0>        -0.4027
     26 C18        -3.0472   -9.2659    0.2957 C.3       1 <0>        -0.0002
     27 C19        -3.5721   -7.8294    0.2364 C.3       1 <0>         0.0243
     28 C20        -1.9181  -10.9875   -0.9795 C.3       1 <0>        -0.0456
     29 H1         -2.1471    1.5506    0.0266 H         1 <0>         0.1101
     30 H2         -1.2703    2.8316   -0.8772 H         1 <0>         0.0895
     31 H3         -1.2559    2.8297    0.9191 H         1 <0>         0.0897
     32 H4          1.1427   -2.1465   -1.2727 H         1 <0>         0.0873
     33 H5          1.5049   -0.6292   -2.1634 H         1 <0>         0.0982
     34 H6          3.4323   -2.2697   -2.1526 H         1 <0>         0.1003
     35 H7          3.8406   -0.6869   -1.4080 H         1 <0>         0.0877
     36 H8          3.4780   -2.2963    2.0617 H         1 <0>         0.1061
     37 H9          3.8724   -0.7053    1.3270 H         1 <0>         0.0834
     38 H10         1.5461   -0.6524    2.1314 H         1 <0>         0.0971
     39 H11         1.1666   -2.1600    1.2316 H         1 <0>         0.0877
     40 H12         4.9646   -5.1328   -1.1774 H         1 <0>         0.0949
     41 H13         5.1721   -3.5238   -1.9486 H         1 <0>         0.0932
     42 H14         3.5585   -4.3129   -1.9373 H         1 <0>         0.0868
     43 H15         0.0188   -2.6603   -0.0115 H         1 <0>         0.4180
     44 H16        -2.7576   -2.9436    0.9129 H         1 <0>         0.0765
     45 H17        -2.7755   -2.9346   -0.8833 H         1 <0>         0.0735
     46 H18        -1.0916   -4.7682   -0.9093 H         1 <0>         0.0712
     47 H19        -1.0737   -4.7773    0.8869 H         1 <0>         0.0859
     48 H20        -3.5013   -5.3289    0.9083 H         1 <0>         0.0949
     49 H21        -3.5192   -5.3199   -0.8879 H         1 <0>         0.0526
     50 H22        -2.4872   -7.1378   -2.1046 H         1 <0>         0.0622
     51 H23        -0.9343   -6.5424   -1.4260 H         1 <0>         0.1240
     52 H24        -0.7684   -8.9255   -2.1686 H         1 <0>         0.1364
     53 H25        -0.5168   -8.7606   -0.3977 H         1 <0>         0.1353
     54 H26        -3.8878   -9.9584    0.4497 H         1 <0>         0.1372
     55 H27        -2.3349   -9.3630    1.1283 H         1 <0>         0.1354
     56 H28        -4.0535   -7.5741    1.1920 H         1 <0>         0.1249
     57 H29        -4.3050   -7.7391   -0.5789 H         1 <0>         0.0624
     58 H30        -2.7750  -11.6519   -0.7942 H         1 <0>         0.1251
     59 H31        -1.1631  -11.1348   -0.1932 H         1 <0>         0.1204
     60 H32        -1.4774  -11.2221   -1.9597 H         1 <0>         0.1250
     61 H33        -3.0973   -9.4646   -1.7843 H         1 <0>         0.4407
@<TRIPOS>BOND
     1    1    2 1
     2    1   29 1
     3    1   30 1
     4    1   31 1
     5    2   14 1
     6    2    3 2
     7    3    4 1
     8    3   16 1
     9    4    9 1
    10    4    5 1
    11    4   13 1
    12    5    6 1
    13    5   32 1
    14    5   33 1
    15    6    7 1
    16    6   34 1
    17    6   35 1
    18    7    8 1
    19    7   10 am
    20    8    9 1
    21    8   36 1
    22    8   37 1
    23    9   38 1
    24    9   39 1
    25   10   11 2
    26   10   12 1
    27   12   40 1
    28   12   41 1
    29   12   42 1
    30   13   14 1
    31   14   15 2
    32   16   17 2
    33   16   18 am
    34   18   19 1
    35   18   43 1
    36   19   20 1
    37   19   44 1
    38   19   45 1
    39   20   21 1
    40   20   46 1
    41   20   47 1
    42   21   22 1
    43   21   48 1
    44   21   49 1
    45   22   27 1
    46   22   23 1
    47   23   24 1
    48   23   50 1
    49   23   51 1
    50   24   25 1
    51   24   52 1
    52   24   53 1
    53   25   26 1
    54   25   28 1
    55   25   61 1
    56   26   27 1
    57   26   54 1
    58   26   55 1
    59   27   56 1
    60   27   57 1
    61   28   58 1
    62   28   59 1
    63   28   60 1
@<TRIPOS>MOLECULE
ZINC21663867
   57    60     0     0     0
SMALL
USER_CHARGES
(3S)-N-(2-dimethylaminoethyl)-1-(5-oxo-6,7,8,9-tetrahydro-[1,3,4]thiadiazolo[5,4-b]quinazolin-2-yl)piperidine-3-carboxamide
@<TRIPOS>ATOM
      1 C1         -9.3313    1.2494   -1.3588 C.3       1 <0>        -0.0544
      2 N1         -8.5121    0.6839   -2.4391 N.4       1 <0>        -0.3989
      3 C2         -9.1334    0.9192   -3.7492 C.3       1 <0>        -0.0462
      4 C3         -7.1457    1.2218   -2.4002 C.3       1 <0>        -0.0208
      5 C4         -6.4461    0.7456   -1.1256 C.3       1 <0>         0.0957
      6 N2         -5.0834    1.2820   -1.0868 N.am      1 <0>        -0.7472
      7 C5         -4.2744    0.9923   -0.0485 C.2       1 <0>         0.5299
      8 O1         -4.6746    0.2876    0.8538 O.2       1 <0>        -0.5157
      9 C6         -2.8727    1.5441   -0.0087 C.3       1 <0>        -0.1007
     10 H1         -2.9293    2.6426   -0.0164 H         1 <0>         0.1219
     11 C7         -2.1703    1.0639    1.2644 C.3       1 <0>        -0.1101
     12 C8         -0.7286    1.5791    1.2674 C.3       1 <0>        -0.1199
     13 C9         -0.0127    1.0858    0.0080 C.3       1 <0>         0.0480
     14 N3         -0.7225    1.5721   -1.1820 N.pl3     1 <0>        -0.4100
     15 C10        -2.0949    1.0518   -1.2313 C.3       1 <0>         0.0605
     16 C11        -0.0298    1.2541   -2.3371 C.2       1 <0>         0.2938
     17 N4          1.0930    0.5997   -2.4679 N.2       1 <0>        -0.2836
     18 N5          1.6561    0.3673   -3.7193 N.am      1 <0>        -0.3705
     19 C12         2.8168   -0.2939   -3.9924 C.2       1 <0>         0.5408
     20 O2          3.4827   -0.7555   -3.0782 O.2       1 <0>        -0.4916
     21 C13         3.2501   -0.4461   -5.3166 C.2       1 <0>        -0.2196
     22 C14         2.4940    0.0761   -6.3353 C.2       1 <0>         0.1952
     23 N6          1.3646    0.7213   -6.0321 N.2       1 <0>        -0.4781
     24 C15         0.9694    0.8582   -4.7939 C.2       1 <0>         0.3133
     25 S1         -0.4444    1.6260   -4.0336 S.3       1 <0>         0.1049
     26 C16         2.8778   -0.0477   -7.7844 C.3       1 <0>        -0.0718
     27 C17         4.3558   -0.4117   -7.9174 C.3       1 <0>        -0.1242
     28 C18         4.6377   -1.6233   -7.0211 C.3       1 <0>        -0.1231
     29 C19         4.5424   -1.1790   -5.5627 C.3       1 <0>        -0.0545
     30 H2         -8.8439    1.0594   -0.3912 H         1 <0>         0.1259
     31 H3        -10.3253    0.7784   -1.3675 H         1 <0>         0.1291
     32 H4         -9.4381    2.3339   -1.5089 H         1 <0>         0.1218
     33 H5         -8.5006    0.4865   -4.5381 H         1 <0>         0.1256
     34 H6         -9.2388    2.0014   -3.9160 H         1 <0>         0.1209
     35 H7        -10.1260    0.4459   -3.7745 H         1 <0>         0.1285
     36 H8         -6.5871    0.8677   -3.2792 H         1 <0>         0.1390
     37 H9         -7.1840    2.3211   -2.4086 H         1 <0>         0.1355
     38 H10        -7.0047    1.0997   -0.2466 H         1 <0>         0.0885
     39 H11        -6.4078   -0.3537   -1.1172 H         1 <0>         0.0883
     40 H12        -4.7204    1.9212   -1.9051 H         1 <0>         0.4311
     41 H13        -2.7030    1.4512    2.1454 H         1 <0>         0.0860
     42 H14        -2.1698   -0.0358    1.2904 H         1 <0>         0.0774
     43 H15        -0.7323    2.6790    1.2820 H         1 <0>         0.0837
     44 H16        -0.2064    1.2024    2.1593 H         1 <0>         0.0944
     45 H17         1.0193    1.4665    0.0000 H         1 <0>         0.1040
     46 H18         0.0021   -0.0141    0.0017 H         1 <0>         0.0686
     47 H19        -2.0698   -0.0479   -1.2315 H         1 <0>         0.0712
     48 H20        -2.5887    1.4074   -2.1476 H         1 <0>         0.0927
     49 H21         2.2721   -0.8342   -8.2582 H         1 <0>         0.0993
     50 H22         2.6985    0.9103   -8.2944 H         1 <0>         0.0983
     51 H23         4.5797   -0.6586   -8.9657 H         1 <0>         0.0837
     52 H24         4.9735    0.4420   -7.6018 H         1 <0>         0.0727
     53 H25         3.8956   -2.4097   -7.2235 H         1 <0>         0.0696
     54 H26         5.6465   -2.0082   -7.2314 H         1 <0>         0.0811
     55 H27         5.3895   -0.5149   -5.3360 H         1 <0>         0.0846
     56 H28         4.5893   -2.0671   -4.9154 H         1 <0>         0.0861
     57 H29        -8.4519   -0.4035   -2.2840 H         1 <0>         0.4498
@<TRIPOS>BOND
     1    1    2 1
     2    1   30 1
     3    1   31 1
     4    1   32 1
     5    2    3 1
     6    2    4 1
     7    2   57 1
     8    3   33 1
     9    3   34 1
    10    3   35 1
    11    4    5 1
    12    4   36 1
    13    4   37 1
    14    5    6 1
    15    5   38 1
    16    5   39 1
    17    6    7 am
    18    6   40 1
    19    7    8 2
    20    7    9 1
    21    9   10 1
    22    9   15 1
    23    9   11 1
    24   11   12 1
    25   11   41 1
    26   11   42 1
    27   12   13 1
    28   12   43 1
    29   12   44 1
    30   13   14 1
    31   13   45 1
    32   13   46 1
    33   14   15 1
    34   14   16 1
    35   15   47 1
    36   15   48 1
    37   16   25 1
    38   16   17 2
    39   17   18 1
    40   18   24 1
    41   18   19 am
    42   19   20 2
    43   19   21 1
    44   21   29 1
    45   21   22 2
    46   22   23 1
    47   22   26 1
    48   23   24 2
    49   24   25 1
    50   26   27 1
    51   26   49 1
    52   26   50 1
    53   27   28 1
    54   27   51 1
    55   27   52 1
    56   28   29 1
    57   28   53 1
    58   28   54 1
    59   29   55 1
    60   29   56 1
@<TRIPOS>MOLECULE
ZINC22775906
   51    55     0     0     0
SMALL
USER_CHARGES
5-(2-furyl)-2-[[4-[(5-methylisoxazol-3-yl)methyl]piperazin-1-yl]methyl]-3H-thieno[3,2-e]pyrimidin-4-one
@<TRIPOS>ATOM
      1 C1          2.6129    0.5574    0.0022 C.3       1 <0>        -0.0868
      2 C2          1.2509    1.1988    0.0694 C.2       1 <0>        -0.0115
      3 C3          0.0537    0.5671    0.0199 C.2       1 <0>        -0.2450
      4 C4         -0.8900    1.6154    0.1158 C.2       1 <0>         0.0095
      5 N1         -0.2055    2.7180    0.2168 N.2       1 <0>        -0.3402
      6 O1          0.9849    2.5070    0.1898 O.3       1 <0>         0.1060
      7 C5         -2.3911    1.4824    0.1065 C.3       1 <0>         0.1364
      8 N2         -2.8871    1.4354    1.4884 N.3       1 <0>        -0.5356
      9 C6         -2.4353    0.2137    2.1689 C.3       1 <0>         0.0221
     10 C7         -2.9049    0.2408    3.6253 C.3       1 <0>         0.0009
     11 N3         -4.3699    0.3500    3.6630 N.4       1 <0>        -0.3926
     12 C8         -4.8217    1.5717    2.9826 C.3       1 <0>        -0.0015
     13 C9         -4.3522    1.5446    1.5261 C.3       1 <0>         0.0309
     14 C10        -4.8659    0.3030    5.0449 C.3       1 <0>         0.0581
     15 C11        -6.3661    0.1606    5.0356 C.2       1 <0>         0.3693
     16 N4         -7.0487    0.2121    6.2082 N.am      1 <0>        -0.6367
     17 H1         -6.5062    0.3527    7.1547 H         1 <0>         0.4581
     18 C12        -8.3889    0.0941    6.2428 C.2       1 <0>         0.5544
     19 O2         -8.9876    0.1473    7.3034 O.2       1 <0>        -0.4755
     20 C13        -9.1001   -0.1002    5.0164 C.2       1 <0>        -0.2049
     21 C14       -10.5337   -0.2582    4.7958 C.2       1 <0>         0.0085
     22 C15       -10.9819   -0.4317    3.5265 C.2       1 <0>        -0.1469
     23 S1         -9.4894   -0.3915    2.5529 S.3       1 <0>         0.2085
     24 C16        -8.3107   -0.1456    3.8559 C.2       1 <0>         0.0727
     25 N5         -6.9871   -0.0158    3.9003 N.2       1 <0>        -0.5010
     26 C17       -11.4781   -0.2305    5.9310 C.2       1 <0>         0.0166
     27 C18       -12.6047    0.5270    6.0138 C.2       1 <0>        -0.1764
     28 C19       -13.1986    0.2368    7.2594 C.2       1 <0>        -0.2160
     29 C20       -12.4093   -0.6662    7.8720 C.2       1 <0>        -0.0175
     30 O3        -11.3702   -0.9466    7.0665 O.3       1 <0>        -0.1527
     31 H2          2.5005   -0.5324   -0.0959 H         1 <0>         0.0960
     32 H3          3.1721    0.7871    0.9212 H         1 <0>         0.0915
     33 H4          3.1602    0.9494   -0.8677 H         1 <0>         0.0933
     34 H5         -0.1360   -0.4919   -0.0755 H         1 <0>         0.1706
     35 H6         -2.8325    2.3461   -0.4123 H         1 <0>         0.1073
     36 H7         -2.6740    0.5568   -0.4163 H         1 <0>         0.0734
     37 H8         -2.8588   -0.6661    1.6624 H         1 <0>         0.0665
     38 H9         -1.3370    0.1614    2.1377 H         1 <0>         0.1253
     39 H10        -2.5923   -0.6860    4.1286 H         1 <0>         0.1410
     40 H11        -2.4585    1.1053    4.1385 H         1 <0>         0.1394
     41 H12        -5.9200    1.6240    3.0139 H         1 <0>         0.1450
     42 H13        -4.3981    2.4515    3.4891 H         1 <0>         0.1343
     43 H14        -4.6639    2.4713    1.0220 H         1 <0>         0.1265
     44 H15        -4.7977    0.6800    1.0122 H         1 <0>         0.0682
     45 H16        -4.4192   -0.5568    5.5657 H         1 <0>         0.1698
     46 H17        -4.5889    1.2315    5.5657 H         1 <0>         0.1647
     47 H18       -11.9989   -0.5630    3.1876 H         1 <0>         0.2119
     48 H19       -12.9742    1.2159    5.2686 H         1 <0>         0.1511
     49 H20       -14.1114    0.6617    7.6501 H         1 <0>         0.1543
     50 H21       -12.5826   -1.0943    8.8483 H         1 <0>         0.2063
     51 H22        -4.7889   -0.5132    3.1252 H         1 <0>         0.4525
@<TRIPOS>BOND
     1    1    2 1
     2    1   31 1
     3    1   32 1
     4    1   33 1
     5    2    6 1
     6    2    3 2
     7    3    4 1
     8    3   34 1
     9    4    5 2
    10    4    7 1
    11    5    6 1
    12    7    8 1
    13    7   35 1
    14    7   36 1
    15    8   13 1
    16    8    9 1
    17    9   10 1
    18    9   37 1
    19    9   38 1
    20   10   11 1
    21   10   39 1
    22   10   40 1
    23   11   12 1
    24   11   14 1
    25   11   51 1
    26   12   13 1
    27   12   41 1
    28   12   42 1
    29   13   43 1
    30   13   44 1
    31   14   15 1
    32   14   45 1
    33   14   46 1
    34   15   25 2
    35   15   16 1
    36   16   17 1
    37   16   18 am
    38   18   19 2
    39   18   20 1
    40   20   24 2
    41   20   21 1
    42   21   22 2
    43   21   26 1
    44   22   23 1
    45   22   47 1
    46   23   24 1
    47   24   25 1
    48   26   30 1
    49   26   27 2
    50   27   28 1
    51   27   48 1
    52   28   29 2
    53   28   49 1
    54   29   30 1
    55   29   50 1
@<TRIPOS>MOLECULE
ZINC23145904
   50    53     0     0     0
SMALL
USER_CHARGES
5-[(2R)-1-[(2,4-dimethylthiazol-5-yl)methyl]pyrrolidin-2-yl]-N-(1-methyl-1,2,4-triazol-3-yl)thiophene-2-carboxamide
@<TRIPOS>ATOM
      1 C1          0.5551    3.2218    6.2643 C.3       1 <0>        -0.1062
      2 C2         -0.4095    2.8152    5.1802 C.2       1 <0>         0.1393
      3 C3          0.0406    2.3278    3.9960 C.2       1 <0>        -0.3109
      4 S1         -1.5071    2.0343    3.1522 S.3       1 <0>         0.0817
      5 C4         -2.5610    2.5736    4.4227 C.2       1 <0>         0.1533
      6 N1         -1.7096    2.9189    5.3607 N.2       1 <0>        -0.5193
      7 C5         -4.0669    2.6260    4.4453 C.3       1 <0>        -0.0880
      8 C6          1.4532    2.0980    3.5239 C.3       1 <0>         0.0971
      9 N2          1.9947    3.3474    2.9729 N.4       1 <0>        -0.4078
     10 C7          1.3745    3.6640    1.6687 C.3       1 <0>        -0.0126
     11 C8          2.4971    4.3534    0.8537 C.3       1 <0>        -0.1398
     12 C9          3.7474    3.5523    1.3027 C.3       1 <0>        -0.1329
     13 C10         3.4546    3.2546    2.7883 C.3       1 <0>         0.1350
     14 H1          3.9494    3.9657    3.4661 H         1 <0>         0.1623
     15 C11         3.9286    1.8680    3.1399 C.2       1 <0>        -0.2570
     16 C12         4.8530    1.5015    4.0660 C.2       1 <0>        -0.0949
     17 C13         5.1404    0.1700    4.2356 C.2       1 <0>        -0.0823
     18 C14         4.4638   -0.7298    3.4267 C.2       1 <0>        -0.1733
     19 S2          3.4323    0.3545    2.4554 S.3       1 <0>         0.1481
     20 C15         4.5685   -2.1908    3.3812 C.2       1 <0>         0.5962
     21 O1          5.3362   -2.7695    4.1277 O.2       1 <0>        -0.4422
     22 N3          3.8148   -2.8938    2.5127 N.am      1 <0>        -0.6339
     23 C16         3.9147   -4.2873    2.4693 C.2       1 <0>         0.4443
     24 N4          4.7165   -5.0341    3.2345 N.2       1 <0>        -0.5254
     25 C17         4.5613   -6.2987    2.9361 C.2       1 <0>         0.2783
     26 N5          3.6434   -6.3900    1.9591 N.pl3     1 <0>        -0.3728
     27 N6          3.2327   -5.0775    1.6747 N.2       1 <0>        -0.3364
     28 C18         3.1616   -7.6174    1.3205 C.3       1 <0>         0.0900
     29 H2          1.5862    3.0588    5.9176 H         1 <0>         0.0689
     30 H3          0.3710    2.6171    7.1646 H         1 <0>         0.0960
     31 H4          0.4121    4.2863    6.5020 H         1 <0>         0.0927
     32 H5         -4.4054    3.0236    5.4134 H         1 <0>         0.1085
     33 H6         -4.4712    1.6129    4.3034 H         1 <0>         0.1049
     34 H7         -4.4232    3.2798    3.6356 H         1 <0>         0.1042
     35 H8          2.0743    1.7713    4.3709 H         1 <0>         0.1507
     36 H9          1.4577    1.3214    2.7449 H         1 <0>         0.1380
     37 H10         1.0346    2.7343    1.1890 H         1 <0>         0.1265
     38 H11         0.5145    4.3320    1.8241 H         1 <0>         0.1348
     39 H12         2.2825    4.2564   -0.2208 H         1 <0>         0.1210
     40 H13         2.5446    5.4188    1.1234 H         1 <0>         0.1040
     41 H14         3.8337    2.6378    0.6975 H         1 <0>         0.1043
     42 H15         4.6474    4.1696    1.1648 H         1 <0>         0.1246
     43 H16         5.3532    2.2488    4.6641 H         1 <0>         0.1566
     44 H17         5.8651   -0.1618    4.9643 H         1 <0>         0.1664
     45 H18         3.1210   -2.3709    1.8380 H         1 <0>         0.4435
     46 H19         5.0816   -7.1261    3.3956 H         1 <0>         0.2283
     47 H20         2.4115   -7.3634    0.5571 H         1 <0>         0.1002
     48 H21         2.7061   -8.2709    2.0791 H         1 <0>         0.0920
     49 H22         4.0056   -8.1394    0.8459 H         1 <0>         0.0926
     50 H23         1.7639    4.1411    3.6987 H         1 <0>         0.4514
@<TRIPOS>BOND
     1    1    2 1
     2    1   29 1
     3    1   30 1
     4    1   31 1
     5    2    6 1
     6    2    3 2
     7    3    4 1
     8    3    8 1
     9    4    5 1
    10    5    6 2
    11    5    7 1
    12    7   32 1
    13    7   33 1
    14    7   34 1
    15    8    9 1
    16    8   35 1
    17    8   36 1
    18    9   13 1
    19    9   10 1
    20    9   50 1
    21   10   11 1
    22   10   37 1
    23   10   38 1
    24   11   12 1
    25   11   39 1
    26   11   40 1
    27   12   13 1
    28   12   41 1
    29   12   42 1
    30   13   14 1
    31   13   15 1
    32   15   19 1
    33   15   16 2
    34   16   17 1
    35   16   43 1
    36   17   18 2
    37   17   44 1
    38   18   19 1
    39   18   20 1
    40   20   21 2
    41   20   22 am
    42   22   23 1
    43   22   45 1
    44   23   27 2
    45   23   24 1
    46   24   25 2
    47   25   26 1
    48   25   46 1
    49   26   27 1
    50   26   28 1
    51   28   47 1
    52   28   48 1
    53   28   49 1
@<TRIPOS>MOLECULE
ZINC23581516
   47    50     0     0     0
SMALL
USER_CHARGES
5-[(2S)-1-[(2-methylthiazol-5-yl)methyl]pyrrolidin-2-yl]-N-(2-methyltriazol-4-yl)thiophene-2-carboxamide
@<TRIPOS>ATOM
      1 C1          2.2759    4.0280    0.0027 C.3       1 <0>        -0.0893
      2 C2          1.1057    3.0785    0.0081 C.2       1 <0>         0.1503
      3 N1          1.1089    1.7655    0.0010 N.2       1 <0>        -0.5212
      4 C3         -0.0126    1.0758    0.0080 C.2       1 <0>         0.1119
      5 C4         -1.1877    1.7552    0.0171 C.2       1 <0>        -0.3130
      6 S1         -0.5927    3.4402    0.0263 S.3       1 <0>         0.0879
      7 C5         -2.6015    1.2333    0.0208 C.3       1 <0>         0.1003
      8 N2         -3.0544    1.0561    1.4070 N.4       1 <0>        -0.4160
      9 C6         -2.4289   -0.1426    2.0224 C.3       1 <0>        -0.0014
     10 C7         -3.3586   -0.5051    3.2003 C.3       1 <0>        -0.1443
     11 C8         -4.7291    0.0981    2.8296 C.3       1 <0>        -0.1355
     12 C9         -4.5122    0.7744    1.4589 C.3       1 <0>         0.1404
     13 H1         -4.8270    0.1591    0.6032 H         1 <0>         0.1657
     14 C10        -5.2987    2.0572    1.3753 C.2       1 <0>        -0.2488
     15 C11        -6.4489    2.2991    0.6934 C.2       1 <0>        -0.1019
     16 C12        -7.0106    3.5503    0.7494 C.2       1 <0>        -0.0710
     17 C13        -6.3545    4.5032    1.5130 C.2       1 <0>        -0.1772
     18 S2         -4.9593    3.5796    2.1320 S.3       1 <0>         0.1445
     19 C14        -6.7160    5.9030    1.7538 C.2       1 <0>         0.6094
     20 O1         -7.7198    6.3683    1.2464 O.2       1 <0>        -0.4817
     21 N3         -5.9368    6.6750    2.5369 N.am      1 <0>        -0.6319
     22 C15        -6.2825    8.0137    2.7672 C.2       1 <0>         0.2624
     23 C16        -7.3940    8.6906    2.2539 C.2       1 <0>        -0.0412
     24 N4         -7.3677    9.9205    2.7015 N.2       1 <0>        -0.2215
     25 N5         -6.3322   10.0892    3.4470 N.pl3     1 <0>        -0.2132
     26 N6         -5.6205    8.8829    3.5053 N.2       1 <0>        -0.3040
     27 C17        -5.9597   11.3346    4.1227 C.3       1 <0>         0.1134
     28 H2          3.2140    3.4537   -0.0096 H         1 <0>         0.1092
     29 H3          2.2424    4.6563    0.9050 H         1 <0>         0.1046
     30 H4          2.2254    4.6670   -0.8912 H         1 <0>         0.1054
     31 H5          0.0021   -0.0041    0.0020 H         1 <0>         0.1763
     32 H6         -3.2589    1.9518   -0.4907 H         1 <0>         0.1420
     33 H7         -2.6369    0.2666   -0.5029 H         1 <0>         0.1509
     34 H8         -2.3761   -0.9513    1.2786 H         1 <0>         0.1374
     35 H9         -1.4138    0.1081    2.3641 H         1 <0>         0.1330
     36 H10        -3.4114   -1.5991    3.3025 H         1 <0>         0.1173
     37 H11        -2.9613   -0.0689    4.1287 H         1 <0>         0.1021
     38 H12        -5.4793   -0.7043    2.7716 H         1 <0>         0.1226
     39 H13        -5.0293    0.8259    3.5978 H         1 <0>         0.1051
     40 H14        -6.9154    1.5162    0.1139 H         1 <0>         0.1568
     41 H15        -7.9241    3.7821    0.2219 H         1 <0>         0.1682
     42 H16        -5.0296    6.2545    2.9953 H         1 <0>         0.4408
     43 H17        -8.1460    8.2700    1.6027 H         1 <0>         0.2128
     44 H18        -5.0286   11.1808    4.6879 H         1 <0>         0.1081
     45 H19        -6.7629   11.6316    4.8131 H         1 <0>         0.0962
     46 H20        -5.8078   12.1265    3.3744 H         1 <0>         0.0961
     47 H21        -2.7827    1.9894    1.9219 H         1 <0>         0.4420
@<TRIPOS>BOND
     1    1    2 1
     2    1   28 1
     3    1   29 1
     4    1   30 1
     5    2    6 1
     6    2    3 2
     7    3    4 1
     8    4    5 2
     9    4   31 1
    10    5    6 1
    11    5    7 1
    12    7    8 1
    13    7   32 1
    14    7   33 1
    15    8   12 1
    16    8    9 1
    17    8   47 1
    18    9   10 1
    19    9   34 1
    20    9   35 1
    21   10   11 1
    22   10   36 1
    23   10   37 1
    24   11   12 1
    25   11   38 1
    26   11   39 1
    27   12   13 1
    28   12   14 1
    29   14   18 1
    30   14   15 2
    31   15   16 1
    32   15   40 1
    33   16   17 2
    34   16   41 1
    35   17   18 1
    36   17   19 1
    37   19   20 2
    38   19   21 am
    39   21   22 1
    40   21   42 1
    41   22   26 2
    42   22   23 1
    43   23   24 2
    44   23   43 1
    45   24   25 1
    46   25   26 1
    47   25   27 1
    48   27   44 1
    49   27   45 1
    50   27   46 1
@<TRIPOS>MOLECULE
ZINC16009926
   54    59     0     0     0
SMALL
USER_CHARGES
[4-[(3aR,4R,8aS,8bS)-1,2',3-trioxospiro[3a,6,7,8,8a,8b-hexahydropyrrolo[3,4-f]pyrrolizine-4,3'-indoline]-2-yl]phenyl] acetate
@<TRIPOS>ATOM
      1 C1         -7.6688   -2.1671    0.1327 C.3       1 <0>        -0.1497
      2 C2         -6.3233   -1.4953    0.2285 C.2       1 <0>         0.4615
      3 O1         -5.3393   -2.1475    0.4864 O.2       1 <0>        -0.4920
      4 O2         -6.2178   -0.1722    0.0272 O.3       1 <0>        -0.2947
      5 C3         -4.9634    0.3523    0.0151 C.ar      1 <0>         0.1130
      6 C4         -4.1471    0.1722   -1.0922 C.ar      1 <0>        -0.1084
      7 C5         -2.8731    0.7042   -1.1047 C.ar      1 <0>        -0.0746
      8 C6         -2.4090    1.4194   -0.0091 C.ar      1 <0>         0.0901
      9 C7         -3.2241    1.5945    1.1010 C.ar      1 <0>        -0.0810
     10 C8         -4.5000    1.0670    1.1103 C.ar      1 <0>        -0.1036
     11 N1         -1.1145    1.9603   -0.0214 N.am      1 <0>        -0.5212
     12 C9         -0.0130    1.2007   -0.0324 C.2       1 <0>         0.5222
     13 O3          0.0020   -0.0115   -0.0330 O.2       1 <0>        -0.4219
     14 C10         1.2100    2.0896   -0.0505 C.3       1 <0>        -0.1283
     15 H1          1.8700    1.8379   -0.8937 H         1 <0>         0.1888
     16 C11         1.9604    1.9538    1.2872 C.3       1 <0>         0.0528
     17 H2          3.0454    2.0815    1.1586 H         1 <0>         0.1781
     18 C12         1.6188    0.5960    1.9271 C.3       1 <0>        -0.1745
     19 C13         0.3966    0.8606    2.8278 C.3       1 <0>        -0.1457
     20 C14         0.0748    2.3569    2.6411 C.3       1 <0>        -0.0393
     21 N2          1.3437    2.9747    2.1876 N.4       1 <0>        -0.3863
     22 C15         1.0549    4.1170    1.3040 C.3       1 <0>         0.0935
     23 C16         0.6113    3.5228   -0.0376 C.3       1 <0>        -0.1119
     24 H3          0.8881    4.1902   -0.8670 H         1 <0>         0.1853
     25 C17        -0.8806    3.2777   -0.0190 C.2       1 <0>         0.5108
     26 O4         -1.7323    4.1404   -0.0089 O.2       1 <0>        -0.4030
     27 C18         2.2553    5.0064    1.1410 C.ar      1 <0>        -0.2037
     28 C19         3.5306    4.7987    0.6649 C.ar      1 <0>        -0.0409
     29 C20         4.4380    5.8428    0.6376 C.ar      1 <0>        -0.1283
     30 C21         4.0611    7.0943    1.0900 C.ar      1 <0>        -0.0438
     31 C22         2.7848    7.3068    1.5679 C.ar      1 <0>        -0.1269
     32 C23         1.8648    6.2613    1.5984 C.ar      1 <0>         0.1684
     33 N3          0.5365    6.2269    2.0281 N.am      1 <0>        -0.6557
     34 C24        -0.0113    5.0047    1.8878 C.2       1 <0>         0.5318
     35 O5         -1.1443    4.6818    2.1760 O.2       1 <0>        -0.4360
     36 H4         -8.4367   -1.4172   -0.1081 H         1 <0>         0.0985
     37 H5         -7.9102   -2.6433    1.0945 H         1 <0>         0.1143
     38 H6         -7.6416   -2.9312   -0.6582 H         1 <0>         0.1151
     39 H7         -4.5084   -0.3839   -1.9446 H         1 <0>         0.1443
     40 H8         -2.2376    0.5637   -1.9665 H         1 <0>         0.1386
     41 H9         -2.8618    2.1470    1.9553 H         1 <0>         0.1349
     42 H10        -5.1358    1.2069    1.9720 H         1 <0>         0.1471
     43 H11         1.3853   -0.1331    1.1373 H         1 <0>         0.1471
     44 H12         2.4793    0.2396    2.5123 H         1 <0>         0.1144
     45 H13        -0.4405    0.2235    2.5064 H         1 <0>         0.1141
     46 H14         0.6536    0.6292    3.8720 H         1 <0>         0.1116
     47 H15        -0.7206    2.4699    1.8898 H         1 <0>         0.1341
     48 H16        -0.2619    2.7818    3.5982 H         1 <0>         0.1477
     49 H17         3.8227    3.8204    0.3128 H         1 <0>         0.1367
     50 H18         5.4384    5.6810    0.2642 H         1 <0>         0.1472
     51 H19         4.7694    7.9092    1.0686 H         1 <0>         0.1484
     52 H20         2.4977    8.2869    1.9193 H         1 <0>         0.1441
     53 H21         0.0627    7.1373    2.4239 H         1 <0>         0.4680
     54 H22         1.9513    3.2952    3.0467 H         1 <0>         0.4686
@<TRIPOS>BOND
     1    1    2 1
     2    1   36 1
     3    1   37 1
     4    1   38 1
     5    2    3 2
     6    2    4 1
     7    4    5 1
     8    5   10 ar
     9    5    6 ar
    10    6    7 ar
    11    6   39 1
    12    7    8 ar
    13    7   40 1
    14    8    9 ar
    15    8   11 1
    16    9   10 ar
    17    9   41 1
    18   10   42 1
    19   11   25 am
    20   11   12 am
    21   12   13 2
    22   12   14 1
    23   14   15 1
    24   14   23 1
    25   14   16 1
    26   16   17 1
    27   16   21 1
    28   16   18 1
    29   18   19 1
    30   18   43 1
    31   18   44 1
    32   19   20 1
    33   19   45 1
    34   19   46 1
    35   20   21 1
    36   20   47 1
    37   20   48 1
    38   21   22 1
    39   21   54 1
    40   22   34 1
    41   22   23 1
    42   22   27 1
    43   23   24 1
    44   23   25 1
    45   25   26 2
    46   27   32 ar
    47   27   28 ar
    48   28   29 ar
    49   28   49 1
    50   29   30 ar
    51   29   50 1
    52   30   31 ar
    53   30   51 1
    54   31   32 ar
    55   31   52 1
    56   32   33 1
    57   33   34 am
    58   33   53 1
    59   34   35 2
@<TRIPOS>MOLECULE
ZINC28178421
   56    60     0     0     0
SMALL
USER_CHARGES
(2S)-2-[4-(1-methylpyrazolo[4,5-e]pyrimidin-4-yl)piperazin-1-yl]-N-(5-quinolyl)propanamide
@<TRIPOS>ATOM
      1 C1         -4.9970    0.4668    1.0701 C.3       1 <0>        -0.1833
      2 C2         -4.7806    1.5433    0.0046 C.3       1 <0>         0.0162
      3 H1         -3.8517    2.1018    0.1921 H         1 <0>         0.1632
      4 C3         -4.7206    0.8985   -1.3561 C.2       1 <0>         0.5045
      5 O1         -5.6575    1.0042   -2.1191 O.2       1 <0>        -0.5081
      6 N1         -3.6260    0.2042   -1.7252 N.am      1 <0>        -0.6494
      7 C4         -3.5330   -0.3172   -3.0159 C.ar      1 <0>         0.1367
      8 C5         -4.6722   -0.6740   -3.7065 C.ar      1 <0>        -0.1122
      9 C6         -4.5873   -1.1890   -4.9958 C.ar      1 <0>        -0.0887
     10 C7         -3.3831   -1.3612   -5.6081 C.ar      1 <0>        -0.0884
     11 C8         -2.1973   -1.0161   -4.9381 C.ar      1 <0>         0.1405
     12 C9         -2.2729   -0.4904   -3.6248 C.ar      1 <0>        -0.1082
     13 C10        -1.0847   -0.1463   -2.9576 C.ar      1 <0>        -0.0719
     14 C11         0.1005   -0.3359   -3.6113 C.ar      1 <0>        -0.1598
     15 C12         0.1058   -0.8570   -4.9027 C.ar      1 <0>         0.1388
     16 N2         -1.0048   -1.1769   -5.5219 N.ar      1 <0>        -0.4635
     17 N3         -5.8933    2.5016    0.0437 N.4       1 <0>        -0.3928
     18 C13        -5.7688    3.4065    1.1950 C.3       1 <0>        -0.0007
     19 C14        -6.8999    4.4369    1.1552 C.3       1 <0>         0.0261
     20 N4         -8.1940    3.7408    1.1737 N.pl3     1 <0>        -0.4731
     21 C15        -8.3185    2.8359    0.0225 C.3       1 <0>         0.0402
     22 C16        -7.1874    1.8055    0.0622 C.3       1 <0>        -0.0153
     23 C17        -9.2401    4.6417    1.2105 C.ar      1 <0>         0.4317
     24 C18        -9.3251    5.6073    2.2324 C.ar      1 <0>        -0.2887
     25 C19        -8.5364    5.9354    3.3563 C.2       1 <0>         0.0923
     26 N5         -9.0939    6.9383    3.9728 N.2       1 <0>        -0.2260
     27 N6        -10.2610    7.3175    3.2977 N.pl3     1 <0>        -0.3694
     28 C20       -10.4143    6.4999    2.2179 C.ar      1 <0>         0.3569
     29 N7        -11.3167    6.3964    1.2432 N.ar      1 <0>        -0.5368
     30 C21       -11.1945    5.4779    0.3104 C.ar      1 <0>         0.3756
     31 N8        -10.1878    4.6224    0.2798 N.ar      1 <0>        -0.5795
     32 C22       -11.1618    8.4059    3.6853 C.3       1 <0>         0.0963
     33 H2         -5.0408    0.9376    2.0633 H         1 <0>         0.1001
     34 H3         -4.1638   -0.2508    1.0408 H         1 <0>         0.1103
     35 H4         -5.9420   -0.0603    0.8721 H         1 <0>         0.0945
     36 H5         -2.8059    0.0486   -1.0088 H         1 <0>         0.4437
     37 H6         -5.6398   -0.5478   -3.2436 H         1 <0>         0.1509
     38 H7         -5.4924   -1.4574   -5.5204 H         1 <0>         0.1398
     39 H8         -3.3397   -1.7631   -6.6097 H         1 <0>         0.1433
     40 H9         -1.1076    0.2571   -1.9560 H         1 <0>         0.1312
     41 H10         1.0318   -0.0821   -3.1269 H         1 <0>         0.1444
     42 H11         1.0496   -1.0019   -5.4073 H         1 <0>         0.1672
     43 H12        -5.8334    2.8254    2.1267 H         1 <0>         0.1448
     44 H13        -4.7988    3.9235    1.1519 H         1 <0>         0.1471
     45 H14        -6.8252    5.0974    2.0316 H         1 <0>         0.1360
     46 H15        -6.8179    5.0361    0.2364 H         1 <0>         0.0803
     47 H16        -9.2885    2.3189    0.0658 H         1 <0>         0.1384
     48 H17        -8.2540    3.4169   -0.9093 H         1 <0>         0.0845
     49 H18        -7.2609    1.1449   -0.8143 H         1 <0>         0.1581
     50 H19        -7.2682    1.2061    0.9810 H         1 <0>         0.1385
     51 H20        -7.6247    5.4391    3.6543 H         1 <0>         0.1990
     52 H21       -11.9448    5.4233   -0.4645 H         1 <0>         0.2127
     53 H22       -11.9926    8.4676    2.9670 H         1 <0>         0.1056
     54 H23       -10.6083    9.3565    3.6883 H         1 <0>         0.0894
     55 H24       -11.5609    8.2108    4.6916 H         1 <0>         0.0898
     56 H25        -5.8472    3.1088   -0.8724 H         1 <0>         0.4472
@<TRIPOS>BOND
     1    1    2 1
     2    1   33 1
     3    1   34 1
     4    1   35 1
     5    2    3 1
     6    2    4 1
     7    2   17 1
     8    4    5 2
     9    4    6 am
    10    6    7 1
    11    6   36 1
    12    7   12 ar
    13    7    8 ar
    14    8    9 ar
    15    8   37 1
    16    9   10 ar
    17    9   38 1
    18   10   11 ar
    19   10   39 1
    20   11   16 ar
    21   11   12 ar
    22   12   13 ar
    23   13   14 ar
    24   13   40 1
    25   14   15 ar
    26   14   41 1
    27   15   16 ar
    28   15   42 1
    29   17   22 1
    30   17   18 1
    31   17   56 1
    32   18   19 1
    33   18   43 1
    34   18   44 1
    35   19   20 1
    36   19   45 1
    37   19   46 1
    38   20   21 1
    39   20   23 1
    40   21   22 1
    41   21   47 1
    42   21   48 1
    43   22   49 1
    44   22   50 1
    45   23   31 ar
    46   23   24 ar
    47   24   28 ar
    48   24   25 1
    49   25   26 2
    50   25   51 1
    51   26   27 1
    52   27   28 1
    53   27   32 1
    54   28   29 ar
    55   29   30 ar
    56   30   31 ar
    57   30   52 1
    58   32   53 1
    59   32   54 1
    60   32   55 1
@<TRIPOS>MOLECULE
ZINC32910891
   51    54     0     0     0
SMALL
USER_CHARGES
(7-acetamido-2-oxo-chromen-4-yl)methyl 3-(2,5-dioxopyrrolidin-1-yl)benzoate
@<TRIPOS>ATOM
      1 C1         -2.2069    1.4683    0.7308 C.3       1 <0>        -0.1749
      2 C2         -2.1765   -0.0383    0.7214 C.2       1 <0>         0.5198
      3 O1         -3.0664   -0.6662    1.2550 O.2       1 <0>        -0.5191
      4 N1         -1.1604   -0.6881    0.1198 N.am      1 <0>        -0.6874
      5 C3         -1.0854   -2.0797    0.1866 C.2       1 <0>         0.2468
      6 C4          0.1603   -2.7027    0.2647 C.2       1 <0>        -0.1381
      7 C5          0.2493   -4.0621    0.3369 C.2       1 <0>        -0.0211
      8 C6         -0.9160   -4.8378    0.3198 C.2       1 <0>        -0.1763
      9 C7         -0.8495   -6.2989    0.3904 C.2       1 <0>         0.1337
     10 C8         -2.0153   -6.9962    0.3707 C.2       1 <0>        -0.2572
     11 C9         -3.2428   -6.3078    0.2842 C.2       1 <0>         0.5301
     12 O2         -4.2806   -6.9451    0.2674 O.3       1 <0>        -0.3417
     13 O3         -3.2969   -4.9682    0.2202 O.3       1 <0>        -0.2375
     14 C10        -2.1757   -4.2159    0.2354 C.2       1 <0>         0.1668
     15 C11        -2.2494   -2.8330    0.1691 C.2       1 <0>        -0.1390
     16 C12         0.4761   -7.0098    0.4828 C.3       1 <0>         0.0789
     17 O4          0.2534   -8.4435    0.5396 O.3       1 <0>        -0.3524
     18 C13         1.3446   -9.2289    0.6250 C.2       1 <0>         0.5242
     19 O5          2.4516   -8.7297    0.6513 O.2       1 <0>        -0.4842
     20 C14         1.1947  -10.6974    0.6868 C.ar      1 <0>        -0.1212
     21 C15        -0.0773  -11.2737    0.6625 C.ar      1 <0>        -0.0550
     22 C16        -0.2137  -12.6455    0.7155 C.ar      1 <0>        -0.1152
     23 C17         0.9051  -13.4533    0.8032 C.ar      1 <0>        -0.0578
     24 C18         2.1743  -12.8897    0.8332 C.ar      1 <0>         0.1058
     25 C19         2.3231  -11.5131    0.7752 C.ar      1 <0>        -0.0345
     26 N2          3.3054  -13.7138    0.9227 N.am      1 <0>        -0.5335
     27 C20         4.3017  -13.6760    0.0293 C.2       1 <0>         0.5226
     28 O6          4.3496  -12.9480   -0.9388 O.2       1 <0>        -0.4668
     29 C21         5.3602  -14.6838    0.4213 C.3       1 <0>        -0.1586
     30 C22         4.7921  -15.3242    1.7042 C.3       1 <0>        -0.1552
     31 C23         3.4750  -14.6070    1.9053 C.2       1 <0>         0.5304
     32 O7          2.6966  -14.8094    2.8124 O.2       1 <0>        -0.4649
     33 H1         -1.3235    1.8561    0.2024 H         1 <0>         0.0871
     34 H2         -2.2001    1.8287    1.7701 H         1 <0>         0.1093
     35 H3         -3.1193    1.8198    0.2267 H         1 <0>         0.1088
     36 H4         -0.3903   -0.1213   -0.4239 H         1 <0>         0.4564
     37 H5          1.0597   -2.1049    0.2727 H         1 <0>         0.1606
     38 H6          1.2162   -4.5388    0.4013 H         1 <0>         0.1619
     39 H7         -2.0018   -8.0749    0.4216 H         1 <0>         0.2027
     40 H8         -3.2103   -2.3441    0.1044 H         1 <0>         0.1735
     41 H9          1.0843   -6.7679   -0.4013 H         1 <0>         0.1301
     42 H10         1.0041   -6.6844    1.3913 H         1 <0>         0.1298
     43 H11        -0.9537  -10.6457    0.5985 H         1 <0>         0.1429
     44 H12        -1.1979  -13.0897    0.6929 H         1 <0>         0.1468
     45 H13         0.7916  -14.5264    0.8488 H         1 <0>         0.1400
     46 H14         3.3091  -11.0732    0.7989 H         1 <0>         0.1454
     47 H15         5.4882  -15.4155   -0.3900 H         1 <0>         0.1289
     48 H16         6.3131  -14.1641    0.6000 H         1 <0>         0.1287
     49 H17         4.6601  -16.4049    1.5471 H         1 <0>         0.1311
     50 H18         5.4905  -15.1575    2.5375 H         1 <0>         0.1306
     51 H19        -5.2461   -6.4223    0.2002 H         1 <0>         0.5178
@<TRIPOS>BOND
     1    1    2 1
     2    1   33 1
     3    1   34 1
     4    1   35 1
     5    2    3 2
     6    2    4 am
     7    4    5 2
     8    4   36 1
     9    5   15 1
    10    5    6 1
    11    6    7 2
    12    6   37 1
    13    7    8 1
    14    7   38 1
    15    8   14 1
    16    8    9 2
    17    9   10 1
    18    9   16 1
    19   10   11 2
    20   10   39 1
    21   11   12 1
    22   11   13 1
    23   12   51 1
    24   13   14 1
    25   14   15 2
    26   15   40 1
    27   16   17 1
    28   16   41 1
    29   16   42 1
    30   17   18 1
    31   18   19 2
    32   18   20 1
    33   20   25 ar
    34   20   21 ar
    35   21   22 ar
    36   21   43 1
    37   22   23 ar
    38   22   44 1
    39   23   24 ar
    40   23   45 1
    41   24   25 ar
    42   24   26 1
    43   25   46 1
    44   26   31 am
    45   26   27 am
    46   27   28 2
    47   27   29 1
    48   29   30 1
    49   29   47 1
    50   29   48 1
    51   30   31 1
    52   30   49 1
    53   30   50 1
    54   31   32 2
@<TRIPOS>MOLECULE
ZINC32934643
   44    46     0     0     0
SMALL
USER_CHARGES
5-chloro-1,3-dimethyl-N-[(S)-(1-methylimidazol-2-yl)-phenyl-methyl]pyrazole-4-sulfonamide
@<TRIPOS>ATOM
      1 C1          0.7981   -1.2224   -7.2815 C.3       1 <0>        -0.1084
      2 C2          0.7635    0.1753   -6.7192 C.2       1 <0>         0.1790
      3 C3          0.9847    0.5276   -5.3839 C.2       1 <0>        -0.8027
      4 C4          0.8730    1.8739   -5.2845 C.2       1 <0>         0.2294
      5 N1          0.5853    2.3540   -6.5129 N.pl3     1 <0>        -0.3327
      6 N2          0.5181    1.2682   -7.3953 N.2       1 <0>        -0.2595
      7 C5          0.3797    3.7620   -6.8615 C.3       1 <0>         0.0726
      8 Cl1         1.0644    2.8131   -3.8371 Cl        1 <0>         0.0304
      9 S1          1.3514   -0.5826   -4.0657 S.o2      1 <0>         2.7179
     10 O1          1.9042    0.2008   -3.0169 O.2       1 <0>        -0.9436
     11 O2          2.0435   -1.6821   -4.6413 O.2       1 <0>        -0.9256
     12 N3         -0.0915   -1.1720   -3.5063 N.pl3     1 <0>        -1.1266
     13 C6         -1.0668   -0.2643   -2.8972 C.3       1 <0>         0.2700
     14 H1         -0.6469    0.7520   -2.9242 H         1 <0>         0.1301
     15 C7         -2.3560   -0.3163   -3.6759 C.ar      1 <0>        -0.1268
     16 C8         -2.8238   -1.5243   -4.1584 C.ar      1 <0>        -0.0998
     17 C9         -4.0086   -1.5726   -4.8689 C.ar      1 <0>        -0.1067
     18 C10        -4.7207   -0.4116   -5.1051 C.ar      1 <0>        -0.0929
     19 C11        -4.2505    0.7971   -4.6267 C.ar      1 <0>        -0.1069
     20 C12        -3.0679    0.8448   -3.9125 C.ar      1 <0>        -0.0995
     21 C13        -1.3230   -0.6845   -1.4728 C.cat     1 <0>         0.2838
     22 N4         -1.6004   -1.8962   -1.0755 N.pl3     1 <0>        -0.4807
     23 C14        -1.7725   -1.8970    0.2547 C.2       1 <0>         0.0228
     24 C15        -1.5891   -0.6391    0.6993 C.2       1 <0>         0.0273
     25 N5         -1.3003    0.1298   -0.3958 N.pl3     1 <0>        -0.3939
     26 C16        -1.0242    1.5686   -0.3994 C.3       1 <0>         0.0368
     27 H2          1.0294   -1.9357   -6.4767 H         1 <0>         0.1010
     28 H3          1.5720   -1.2851   -8.0607 H         1 <0>         0.0984
     29 H4         -0.1818   -1.4666   -7.7175 H         1 <0>         0.0926
     30 H5          0.1608    3.8454   -7.9363 H         1 <0>         0.1160
     31 H6          1.2893    4.3344   -6.6270 H         1 <0>         0.0986
     32 H7         -0.4654    4.1633   -6.2829 H         1 <0>         0.0962
     33 H8         -0.2404   -2.2602   -3.4459 H         1 <0>         0.4452
     34 H9         -2.2653   -2.4308   -3.9774 H         1 <0>         0.1227
     35 H10        -4.3761   -2.5170   -5.2424 H         1 <0>         0.1358
     36 H11        -5.6446   -0.4489   -5.6631 H         1 <0>         0.1343
     37 H12        -4.8069    1.7041   -4.8113 H         1 <0>         0.1339
     38 H13        -2.7004    1.7892   -3.5390 H         1 <0>         0.1243
     39 H14        -2.0156   -2.7558    0.8627 H         1 <0>         0.2269
     40 H15        -1.6564   -0.3018    1.7231 H         1 <0>         0.2277
     41 H16        -1.0775    1.9547    0.6292 H         1 <0>         0.1305
     42 H17        -1.7695    2.0834   -1.0234 H         1 <0>         0.1120
     43 H18        -0.0182    1.7479   -0.8067 H         1 <0>         0.1171
     44 H19        -1.6586   -2.7152   -1.8075 H         1 <0>         0.4933
@<TRIPOS>BOND
     1    1    2 1
     2    1   27 1
     3    1   28 1
     4    1   29 1
     5    2    6 2
     6    2    3 1
     7    3    4 2
     8    3    9 1
     9    4    5 1
    10    4    8 1
    11    5    6 1
    12    5    7 1
    13    7   30 1
    14    7   31 1
    15    7   32 1
    16    9   10 2
    17    9   11 2
    18    9   12 1
    19   12   13 1
    20   12   33 1
    21   13   14 1
    22   13   15 1
    23   13   21 1
    24   15   20 ar
    25   15   16 ar
    26   16   17 ar
    27   16   34 1
    28   17   18 ar
    29   17   35 1
    30   18   19 ar
    31   18   36 1
    32   19   20 ar
    33   19   37 1
    34   20   38 1
    35   21   25 1
    36   21   22 2
    37   22   23 1
    38   22   44 1
    39   23   24 2
    40   23   39 1
    41   24   25 1
    42   24   40 1
    43   25   26 1
    44   26   41 1
    45   26   42 1
    46   26   43 1
@<TRIPOS>MOLECULE
ZINC33171683
   59    62     0     0     0
SMALL
USER_CHARGES
2-(1,3-dimethyl-7-oxo-pyrazolo[3,4-c]pyridin-6-yl)-N-[[4-(4-methylpiperazin-1-yl)phenyl]methyl]acetamide
@<TRIPOS>ATOM
      1 C1         -4.5746    7.8584  -14.9554 C.3       1 <0>        -0.0770
      2 C2         -3.9545    8.3783  -13.6842 C.2       1 <0>         0.0847
      3 C3         -3.3987    7.5908  -12.6609 C.2       1 <0>        -0.1276
      4 C4         -3.2276    6.1518  -12.4567 C.2       1 <0>        -0.1336
      5 C5         -2.6312    5.7200  -11.3306 C.2       1 <0>         0.0749
      6 N1         -2.1957    6.5953  -10.3771 N.am      1 <0>        -0.4870
      7 C6         -2.3275    7.9276  -10.5148 C.2       1 <0>         0.5720
      8 O1         -1.9192    8.6722   -9.6395 O.2       1 <0>        -0.5406
      9 C7         -2.9371    8.4660  -11.6682 C.2       1 <0>         0.0101
     10 N2         -3.2159    9.7327  -12.1003 N.pl3     1 <0>        -0.3340
     11 N3         -3.8441    9.6358  -13.3490 N.2       1 <0>        -0.2469
     12 C8         -2.9121   10.9736  -11.3832 C.3       1 <0>         0.1009
     13 C9         -1.5590    6.0672   -9.1680 C.3       1 <0>         0.0805
     14 C10        -2.6072    5.8271   -8.1123 C.2       1 <0>         0.5016
     15 O2         -3.7715    6.0728   -8.3468 O.2       1 <0>        -0.5218
     16 N4         -2.2509    5.3392   -6.9075 N.am      1 <0>        -0.7367
     17 C11        -3.2699    5.1057   -5.8812 C.3       1 <0>         0.1616
     18 C12        -2.6150    4.5625   -4.6374 C.ar      1 <0>        -0.1114
     19 C13        -2.1614    5.4306   -3.6613 C.ar      1 <0>        -0.0715
     20 C14        -1.5611    4.9361   -2.5200 C.ar      1 <0>        -0.1294
     21 C15        -1.4132    3.5650   -2.3533 C.ar      1 <0>         0.0958
     22 C16        -1.8653    2.6960   -3.3382 C.ar      1 <0>        -0.1640
     23 C17        -2.4693    3.1970   -4.4746 C.ar      1 <0>        -0.0710
     24 N5         -0.8062    3.0616   -1.2005 N.pl3     1 <0>        -0.4881
     25 C18        -0.7538    1.5933   -1.2312 C.3       1 <0>         0.0188
     26 C19        -0.0127    1.0858    0.0080 C.3       1 <0>        -0.0010
     27 N6         -0.7014    1.5602    1.2164 N.4       1 <0>        -0.4036
     28 C20        -0.7542    3.0285    1.2469 C.3       1 <0>        -0.0012
     29 C21        -1.4953    3.5359    0.0077 C.3       1 <0>         0.0245
     30 C22        -0.0625    1.0307    2.4286 C.3       1 <0>        -0.0455
     31 H1         -4.5268    6.7595  -14.9639 H         1 <0>         0.0830
     32 H2         -4.0245    8.2561  -15.8210 H         1 <0>         0.0823
     33 H3         -5.6251    8.1802  -15.0092 H         1 <0>         0.0820
     34 H4         -3.5707    5.4477  -13.2003 H         1 <0>         0.1523
     35 H5         -2.4980    4.6595  -11.1756 H         1 <0>         0.1623
     36 H6         -3.2538   11.8337  -11.9778 H         1 <0>         0.1003
     37 H7         -1.8265   11.0474  -11.2218 H         1 <0>         0.0864
     38 H8         -3.4279   10.9713  -10.4117 H         1 <0>         0.0855
     39 H9         -1.0527    5.1196   -9.4042 H         1 <0>         0.1257
     40 H10        -0.8221    6.7935   -8.7945 H         1 <0>         0.1301
     41 H11        -1.1949    5.1163   -6.6948 H         1 <0>         0.4237
     42 H12        -3.7763    6.0532   -5.6450 H         1 <0>         0.0778
     43 H13        -4.0068    4.3794   -6.2547 H         1 <0>         0.0782
     44 H14        -2.2770    6.4965   -3.7914 H         1 <0>         0.1335
     45 H15        -1.2074    5.6147   -1.7579 H         1 <0>         0.1298
     46 H16        -1.7478    1.6297   -3.2137 H         1 <0>         0.1291
     47 H17        -2.8247    2.5217   -5.2389 H         1 <0>         0.1314
     48 H18        -1.7772    1.1900   -1.2384 H         1 <0>         0.0726
     49 H19        -0.2236    1.2642   -2.1371 H         1 <0>         0.1304
     50 H20         0.0023   -0.0141    0.0014 H         1 <0>         0.1409
     51 H21         1.0192    1.4666   -0.0003 H         1 <0>         0.1368
     52 H22        -1.2845    3.3576    2.1527 H         1 <0>         0.1409
     53 H23         0.2690    3.4322    1.2541 H         1 <0>         0.1371
     54 H24        -1.5106    4.6358    0.0132 H         1 <0>         0.1292
     55 H25        -2.5272    3.1549    0.0148 H         1 <0>         0.0710
     56 H26        -0.5968    1.4006    3.3161 H         1 <0>         0.1259
     57 H27         0.9852    1.3636    2.4661 H         1 <0>         0.1207
     58 H28        -0.0976   -0.0686    2.4112 H         1 <0>         0.1260
     59 H29        -1.7346    1.1838    1.1886 H         1 <0>         0.4420
@<TRIPOS>BOND
     1    1    2 1
     2    1   31 1
     3    1   32 1
     4    1   33 1
     5    2   11 2
     6    2    3 1
     7    3    9 2
     8    3    4 1
     9    4    5 2
    10    4   34 1
    11    5    6 1
    12    5   35 1
    13    6    7 am
    14    6   13 1
    15    7    8 2
    16    7    9 1
    17    9   10 1
    18   10   11 1
    19   10   12 1
    20   12   36 1
    21   12   37 1
    22   12   38 1
    23   13   14 1
    24   13   39 1
    25   13   40 1
    26   14   15 2
    27   14   16 am
    28   16   17 1
    29   16   41 1
    30   17   18 1
    31   17   42 1
    32   17   43 1
    33   18   23 ar
    34   18   19 ar
    35   19   20 ar
    36   19   44 1
    37   20   21 ar
    38   20   45 1
    39   21   22 ar
    40   21   24 1
    41   22   23 ar
    42   22   46 1
    43   23   47 1
    44   24   29 1
    45   24   25 1
    46   25   26 1
    47   25   48 1
    48   25   49 1
    49   26   27 1
    50   26   50 1
    51   26   51 1
    52   27   28 1
    53   27   30 1
    54   27   59 1
    55   28   29 1
    56   28   52 1
    57   28   53 1
    58   29   54 1
    59   29   55 1
    60   30   56 1
    61   30   57 1
    62   30   58 1
@<TRIPOS>MOLECULE
ZINC33259079
   63    66     0     0     0
SMALL
USER_CHARGES
1-(4-methyl-3-oxo-pyrido[2,3-b]pyrazin-2-yl)-N-[2-[(2R)-2-methyl-1-piperidyl]ethyl]piperidine-4-carboxamide
@<TRIPOS>ATOM
      1 C1         -2.8352    1.6278    2.5227 C.3       1 <0>        -0.1873
      2 C2         -2.1577    1.0925    1.2596 C.3       1 <0>         0.0353
      3 H1         -2.2605   -0.0010    1.1995 H         1 <0>         0.1313
      4 C3         -0.6798    1.4950    1.2640 C.3       1 <0>        -0.1407
      5 C4         -0.0122    0.9746   -0.0119 C.3       1 <0>        -0.1408
      6 C5         -0.7478    1.5376   -1.2311 C.3       1 <0>        -0.1466
      7 C6         -2.2223    1.1339   -1.1625 C.3       1 <0>        -0.0084
      8 N1         -2.8170    1.6559    0.0746 N.4       1 <0>        -0.3950
      9 C7         -4.2643    1.4067    0.1089 C.3       1 <0>        -0.0277
     10 C8         -4.9615    2.3085   -0.9117 C.3       1 <0>         0.1000
     11 N2         -6.4048    2.0599   -0.8774 N.am      1 <0>        -0.7468
     12 C9         -7.2263    2.7453   -1.6971 C.2       1 <0>         0.5289
     13 O1         -6.7706    3.5678   -2.4631 O.2       1 <0>        -0.5236
     14 C10        -8.7110    2.4896   -1.6619 C.3       1 <0>        -0.1095
     15 C11        -8.9865    1.0250   -2.0134 C.3       1 <0>        -0.1035
     16 C12       -10.4980    0.7865   -2.0356 C.3       1 <0>         0.0404
     17 N3        -11.1201    1.6721   -3.0281 N.pl3     1 <0>        -0.4476
     18 C13       -10.9092    3.0844   -2.6857 C.3       1 <0>         0.0617
     19 C14        -9.4100    3.3916   -2.6829 C.3       1 <0>        -0.1021
     20 C15       -12.4676    1.3916   -3.1673 C.2       1 <0>         0.2953
     21 C16       -12.9125    0.0059   -3.4082 C.2       1 <0>         0.5161
     22 O2        -12.1001   -0.8969   -3.4857 O.2       1 <0>        -0.4956
     23 N4        -14.2322   -0.2499   -3.5360 N.am      1 <0>        -0.4978
     24 C17       -15.1317    0.7938   -3.4494 C.ar      1 <0>         0.3184
     25 C18       -14.6664    2.1022   -3.2246 C.ar      1 <0>         0.0177
     26 N5        -13.3491    2.3563   -3.0909 N.2       1 <0>        -0.4592
     27 C19       -15.5985    3.1482   -3.1400 C.ar      1 <0>        -0.0064
     28 C20       -16.9380    2.8435   -3.2822 C.ar      1 <0>        -0.1868
     29 C21       -17.3198    1.5293   -3.5017 C.ar      1 <0>         0.1591
     30 N6        -16.4307    0.5610   -3.5785 N.ar      1 <0>        -0.5036
     31 C22       -14.7033   -1.6173   -3.7693 C.3       1 <0>         0.0672
     32 H2         -2.3414    1.2059    3.4105 H         1 <0>         0.1078
     33 H3         -3.8963    1.3377    2.5206 H         1 <0>         0.0823
     34 H4         -2.7550    2.7246    2.5450 H         1 <0>         0.0836
     35 H5         -0.5985    2.5913    1.3023 H         1 <0>         0.0902
     36 H6         -0.1838    1.0596    2.1440 H         1 <0>         0.1127
     37 H7          1.0391    1.2976   -0.0336 H         1 <0>         0.0959
     38 H8         -0.0585   -0.1243   -0.0280 H         1 <0>         0.0814
     39 H9         -0.6659    2.6345   -1.2344 H         1 <0>         0.0894
     40 H10        -0.2976    1.1336   -2.1498 H         1 <0>         0.1137
     41 H11        -2.7569    1.5493   -2.0295 H         1 <0>         0.1322
     42 H12        -2.3030    0.0369   -1.1731 H         1 <0>         0.1273
     43 H13        -4.4609    0.3530   -0.1382 H         1 <0>         0.1343
     44 H14        -4.6503    1.6254    1.1155 H         1 <0>         0.1425
     45 H15        -4.7649    3.3622   -0.6646 H         1 <0>         0.0858
     46 H16        -4.5756    2.0898   -1.9183 H         1 <0>         0.0852
     47 H17        -6.8180    1.3139   -0.1827 H         1 <0>         0.4294
     48 H18        -9.0782    2.7105   -0.6488 H         1 <0>         0.1031
     49 H19        -8.5634    0.7997   -3.0034 H         1 <0>         0.0851
     50 H20        -8.5217    0.3732   -1.2590 H         1 <0>         0.0791
     51 H21       -10.7000   -0.2614   -2.3023 H         1 <0>         0.1211
     52 H22       -10.9174    0.9991   -1.0412 H         1 <0>         0.0522
     53 H23       -11.4120    3.7208   -3.4287 H         1 <0>         0.1020
     54 H24       -11.3262    3.2860   -1.6880 H         1 <0>         0.0587
     55 H25        -9.2504    4.4455   -2.4110 H         1 <0>         0.0859
     56 H26        -8.9936    3.2040   -3.6836 H         1 <0>         0.0851
     57 H27       -15.2767    4.1648   -2.9686 H         1 <0>         0.1544
     58 H28       -17.6825    3.6236   -3.2231 H         1 <0>         0.1525
     59 H29       -18.3682    1.2946   -3.6124 H         1 <0>         0.1734
     60 H30       -15.8007   -1.6192   -3.8446 H         1 <0>         0.1108
     61 H31       -14.3920   -2.2601   -2.9327 H         1 <0>         0.0806
     62 H32       -14.2709   -1.9993   -4.7058 H         1 <0>         0.0813
     63 H33        -2.6593    2.7444    0.0891 H         1 <0>         0.4388
@<TRIPOS>BOND
     1    1    2 1
     2    1   32 1
     3    1   33 1
     4    1   34 1
     5    2    3 1
     6    2    8 1
     7    2    4 1
     8    4    5 1
     9    4   35 1
    10    4   36 1
    11    5    6 1
    12    5   37 1
    13    5   38 1
    14    6    7 1
    15    6   39 1
    16    6   40 1
    17    7    8 1
    18    7   41 1
    19    7   42 1
    20    8    9 1
    21    8   63 1
    22    9   10 1
    23    9   43 1
    24    9   44 1
    25   10   11 1
    26   10   45 1
    27   10   46 1
    28   11   12 am
    29   11   47 1
    30   12   13 2
    31   12   14 1
    32   14   19 1
    33   14   15 1
    34   14   48 1
    35   15   16 1
    36   15   49 1
    37   15   50 1
    38   16   17 1
    39   16   51 1
    40   16   52 1
    41   17   18 1
    42   17   20 1
    43   18   19 1
    44   18   53 1
    45   18   54 1
    46   19   55 1
    47   19   56 1
    48   20   26 2
    49   20   21 1
    50   21   22 2
    51   21   23 am
    52   23   24 1
    53   23   31 1
    54   24   30 ar
    55   24   25 ar
    56   25   26 1
    57   25   27 ar
    58   27   28 ar
    59   27   57 1
    60   28   29 ar
    61   28   58 1
    62   29   30 ar
    63   29   59 1
    64   31   60 1
    65   31   61 1
    66   31   62 1
@<TRIPOS>MOLECULE
ZINC33259080
   63    66     0     0     0
SMALL
USER_CHARGES
1-(4-methyl-3-oxo-pyrido[2,3-b]pyrazin-2-yl)-N-[2-[(2S)-2-methyl-1-piperidyl]ethyl]piperidine-4-carboxamide
@<TRIPOS>ATOM
      1 C1         -0.5069    3.2512   -8.3972 C.3       1 <0>        -0.1873
      2 C2         -0.4157    1.7313   -8.5468 C.3       1 <0>         0.0359
      3 H1         -1.4049    1.2694   -8.4119 H         1 <0>         0.1312
      4 C3          0.1539    1.3879   -9.9251 C.3       1 <0>        -0.1414
      5 C4          0.2621   -0.1333  -10.0627 C.3       1 <0>        -0.1407
      6 C5          1.1437   -0.6784   -8.9357 C.3       1 <0>        -0.1466
      7 C6          0.5454   -0.2751   -7.5861 C.3       1 <0>        -0.0091
      8 N1          0.4636    1.1888   -7.5033 N.4       1 <0>        -0.3951
      9 C7          0.0232    1.6168   -6.1688 C.3       1 <0>        -0.0263
     10 C8          1.1132    1.2951   -5.1445 C.3       1 <0>         0.0994
     11 N2          0.6740    1.7219   -3.8137 N.am      1 <0>        -0.7468
     12 C9          1.4777    1.5377   -2.7476 C.2       1 <0>         0.5285
     13 O1          2.5645    1.0186   -2.8899 O.2       1 <0>        -0.5229
     14 C10         1.0259    1.9768   -1.3786 C.3       1 <0>        -0.1095
     15 C11         2.1160    1.6554   -0.3524 C.3       1 <0>        -0.0967
     16 C12         1.6778    2.1570    1.0254 C.3       1 <0>         0.0391
     17 N3          1.4444    3.6057    0.9688 N.pl3     1 <0>        -0.4478
     18 C13         0.3689    3.9347    0.0247 C.3       1 <0>         0.0629
     19 C14         0.7691    3.4863   -1.3828 C.3       1 <0>        -0.1091
     20 C15         1.1725    4.1135    2.2267 C.2       1 <0>         0.2981
     21 C16         2.0689    3.8055    3.3571 C.2       1 <0>         0.5141
     22 O2          3.0506    3.1056    3.1915 O.2       1 <0>        -0.4903
     23 N4          1.7876    4.3098    4.5777 N.am      1 <0>        -0.4983
     24 C17         0.6678    5.1013    4.7375 C.ar      1 <0>         0.3195
     25 C18        -0.1618    5.3713    3.6338 C.ar      1 <0>         0.0173
     26 N5          0.1223    4.8721    2.4141 N.2       1 <0>        -0.4628
     27 C19        -1.2952    6.1784    3.8188 C.ar      1 <0>        -0.0076
     28 C20        -1.5459    6.6736    5.0834 C.ar      1 <0>        -0.1878
     29 C21        -0.6819    6.3636    6.1219 C.ar      1 <0>         0.1588
     30 N6          0.3766    5.6042    5.9294 N.ar      1 <0>        -0.5031
     31 C22         2.6603    4.0210    5.7184 C.3       1 <0>         0.0667
     32 H2         -1.1656    3.6577   -9.1788 H         1 <0>         0.1077
     33 H3          0.4965    3.6904   -8.4983 H         1 <0>         0.0837
     34 H4         -0.9172    3.4982   -7.4069 H         1 <0>         0.0824
     35 H5         -0.5131    1.7820  -10.7060 H         1 <0>         0.1128
     36 H6          1.1512    1.8394  -10.0326 H         1 <0>         0.0903
     37 H7         -0.7410   -0.5798   -9.9959 H         1 <0>         0.0813
     38 H8          0.7103   -0.3825  -11.0358 H         1 <0>         0.0959
     39 H9          1.1907   -1.7752   -9.0048 H         1 <0>         0.1136
     40 H10         2.1573   -0.2614   -9.0287 H         1 <0>         0.0896
     41 H11        -0.4628   -0.7043   -7.4890 H         1 <0>         0.1270
     42 H12         1.1844   -0.6527   -6.7742 H         1 <0>         0.1324
     43 H13        -0.1657    2.7004   -6.1751 H         1 <0>         0.1425
     44 H14        -0.9013    1.0850   -5.8997 H         1 <0>         0.1337
     45 H15         1.3021    0.2115   -5.1383 H         1 <0>         0.0850
     46 H16         2.0377    1.8269   -5.4136 H         1 <0>         0.0862
     47 H17        -0.3117    2.1927   -3.6846 H         1 <0>         0.4292
     48 H18         0.1004    1.4374   -1.1287 H         1 <0>         0.1028
     49 H19         2.2748    0.5676   -0.3147 H         1 <0>         0.0862
     50 H20         3.0527    2.1528   -0.6444 H         1 <0>         0.0878
     51 H21         0.7492    1.6478    1.3227 H         1 <0>         0.0512
     52 H22         2.4660    1.9415    1.7618 H         1 <0>         0.1225
     53 H23        -0.5540    3.4172    0.3254 H         1 <0>         0.0599
     54 H24         0.1977    5.0213    0.0281 H         1 <0>         0.1011
     55 H25         1.6843    4.0130   -1.6910 H         1 <0>         0.0828
     56 H26        -0.0426    3.7182   -2.0881 H         1 <0>         0.0789
     57 H27        -1.9541    6.4059    2.9939 H         1 <0>         0.1531
     58 H28        -2.4092    7.2976    5.2620 H         1 <0>         0.1519
     59 H29        -0.8812    6.7522    7.1096 H         1 <0>         0.1731
     60 H30         2.2657    4.5178    6.6170 H         1 <0>         0.1107
     61 H31         3.6736    4.3939    5.5084 H         1 <0>         0.0818
     62 H32         2.6968    2.9345    5.8863 H         1 <0>         0.0814
     63 H33         1.4732    1.5912   -7.6731 H         1 <0>         0.4391
@<TRIPOS>BOND
     1    1    2 1
     2    1   32 1
     3    1   33 1
     4    1   34 1
     5    2    3 1
     6    2    8 1
     7    2    4 1
     8    4    5 1
     9    4   35 1
    10    4   36 1
    11    5    6 1
    12    5   37 1
    13    5   38 1
    14    6    7 1
    15    6   39 1
    16    6   40 1
    17    7    8 1
    18    7   41 1
    19    7   42 1
    20    8    9 1
    21    8   63 1
    22    9   10 1
    23    9   43 1
    24    9   44 1
    25   10   11 1
    26   10   45 1
    27   10   46 1
    28   11   12 am
    29   11   47 1
    30   12   13 2
    31   12   14 1
    32   14   19 1
    33   14   15 1
    34   14   48 1
    35   15   16 1
    36   15   49 1
    37   15   50 1
    38   16   17 1
    39   16   51 1
    40   16   52 1
    41   17   18 1
    42   17   20 1
    43   18   19 1
    44   18   53 1
    45   18   54 1
    46   19   55 1
    47   19   56 1
    48   20   26 2
    49   20   21 1
    50   21   22 2
    51   21   23 am
    52   23   24 1
    53   23   31 1
    54   24   30 ar
    55   24   25 ar
    56   25   26 1
    57   25   27 ar
    58   27   28 ar
    59   27   57 1
    60   28   29 ar
    61   28   58 1
    62   29   30 ar
    63   29   59 1
    64   31   60 1
    65   31   61 1
    66   31   62 1
@<TRIPOS>MOLECULE
ZINC34739561
   50    53     0     0     0
SMALL
USER_CHARGES

@<TRIPOS>ATOM
      1 C1         -0.0178    1.4648    0.0101 C.3       1 <0>        -0.0388
      2 N1          0.0021   -0.0041    0.0020 N.3       1 <0>        -0.3107
      3 C2         -1.3712   -0.5544    0.0912 C.3       1 <0>         0.0838
      4 H1         -2.0970    0.1808   -0.2564 H         1 <0>         0.1191
      5 C3         -1.5868   -0.8533    1.5897 C.3       1 <0>        -0.6635
      6 H2         -1.7829   -1.9147    1.7418 H         1 <0>         0.1650
      7 C4         -0.2537   -0.4494    2.2581 C.3       1 <0>         0.0367
      8 O1          0.7128   -0.5305    1.1855 O.3       1 <0>        -0.1924
      9 S1         -2.9546    0.1425    2.2440 S.o2      1 <0>         2.6110
     10 O2         -2.6412    1.5254    2.1514 O.2       1 <0>        -0.9277
     11 O3         -4.1957   -0.3530    1.7607 O.2       1 <0>        -0.9355
     12 N2         -2.9754   -0.1782    3.8685 N.pl3     1 <0>        -1.0999
     13 C5         -1.8441    0.2224    4.7088 C.3       1 <0>         0.0946
     14 C6         -2.2552    0.1599    6.1812 C.3       1 <0>         0.0729
     15 H3         -3.1546    0.7551    6.3394 H         1 <0>         0.0961
     16 C7         -1.1103    0.6952    7.0677 C.3       1 <0>        -0.1518
     17 C8         -1.1533   -0.2726    8.2816 C.3       1 <0>        -0.1573
     18 C9         -1.5754   -1.5933    7.5900 C.3       1 <0>         0.0474
     19 O4         -2.4992   -1.1996    6.5603 O.3       1 <0>        -0.3768
     20 C10        -1.4813   -1.8207   -0.7184 C.ar      1 <0>         0.0835
     21 C11        -0.3761   -2.5733   -0.9984 C.ar      1 <0>        -0.1410
     22 C12        -0.5014   -3.7401   -1.7486 C.ar      1 <0>         0.2094
     23 N3         -1.6621   -4.1470   -2.2026 N.ar      1 <0>        -0.4536
     24 C13        -2.7818   -3.4572   -1.9644 C.ar      1 <0>         0.1363
     25 C14        -2.7263   -2.2639   -1.2021 C.ar      1 <0>        -0.0789
     26 C15        -3.9067   -1.5460   -0.9500 C.ar      1 <0>        -0.0736
     27 C16        -5.0916   -2.0077   -1.4358 C.ar      1 <0>        -0.0799
     28 C17        -5.1495   -3.1841   -2.1807 C.ar      1 <0>        -0.0307
     29 C18        -4.0238   -3.8981   -2.4544 C.ar      1 <0>        -0.1395
     30 H4          1.0047    1.8421    0.0024 H         1 <0>         0.1088
     31 H5         -0.5450    1.8259   -0.8730 H         1 <0>         0.1030
     32 H6         -0.5280    1.8163    0.9069 H         1 <0>         0.0690
     33 H7         -0.3124    0.5684    2.6438 H         1 <0>         0.0876
     34 H8          0.0009   -1.1474    3.0556 H         1 <0>         0.1310
     35 H9         -3.7365   -0.6314    4.2637 H         1 <0>         0.4306
     36 H10        -1.0063   -0.4532    4.5364 H         1 <0>         0.0730
     37 H11        -1.5474    1.2407    4.4573 H         1 <0>         0.0956
     38 H12        -0.1537    0.6256    6.5499 H         1 <0>         0.0825
     39 H13        -1.3092    1.7200    7.3814 H         1 <0>         0.0922
     40 H14        -0.1705   -0.3676    8.7433 H         1 <0>         0.0895
     41 H15        -1.8988    0.0447    9.0107 H         1 <0>         0.0837
     42 H16        -0.7069   -2.0854    7.1521 H         1 <0>         0.0626
     43 H17        -2.0657   -2.2546    8.3044 H         1 <0>         0.0909
     44 H18         0.5941   -2.2636   -0.6387 H         1 <0>         0.1991
     45 H19         0.3810   -4.3250   -1.9622 H         1 <0>         0.2170
     46 H20        -3.8746   -0.6331   -0.3738 H         1 <0>         0.1497
     47 H21        -5.9989   -1.4551   -1.2412 H         1 <0>         0.1591
     48 H22        -6.1018   -3.5295   -2.5551 H         1 <0>         0.1605
     49 H23        -4.0862   -4.8076   -3.0334 H         1 <0>         0.1604
     50 H24        -1.7091   -4.9648   -2.7221 H         1 <0>         0.4500
@<TRIPOS>BOND
     1    1    2 1
     2    1   30 1
     3    1   31 1
     4    1   32 1
     5    2    8 1
     6    2    3 1
     7    3    4 1
     8    3    5 1
     9    3   20 1
    10    5    6 1
    11    5    7 1
    12    5    9 1
    13    7    8 1
    14    7   33 1
    15    7   34 1
    16    9   10 2
    17    9   11 2
    18    9   12 1
    19   12   13 1
    20   12   35 1
    21   13   14 1
    22   13   36 1
    23   13   37 1
    24   14   15 1
    25   14   19 1
    26   14   16 1
    27   16   17 1
    28   16   38 1
    29   16   39 1
    30   17   18 1
    31   17   40 1
    32   17   41 1
    33   18   19 1
    34   18   42 1
    35   18   43 1
    36   20   25 ar
    37   20   21 ar
    38   21   22 ar
    39   21   44 1
    40   22   23 ar
    41   22   45 1
    42   23   24 ar
    43   23   50 1
    44   24   29 ar
    45   24   25 ar
    46   25   26 ar
    47   26   27 ar
    48   26   46 1
    49   27   28 ar
    50   27   47 1
    51   28   29 ar
    52   28   48 1
    53   29   49 1
@<TRIPOS>MOLECULE
ZINC38787553
   45    49     0     0     0
SMALL
USER_CHARGES

@<TRIPOS>ATOM
      1 C1          0.5341    0.4460   -1.1987 C.ar      1 <0>        -0.0652
      2 C2          1.7201    1.1532   -1.2061 C.ar      1 <0>        -0.1330
      3 C3          2.3799    1.4140   -0.0139 C.ar      1 <0>         0.1431
      4 C4          1.8486    0.9645    1.1862 C.ar      1 <0>        -0.1322
      5 C5          0.6628    0.2572    1.1947 C.ar      1 <0>        -0.0647
      6 C6          0.0021   -0.0041    0.0020 C.ar      1 <0>         0.0664
      7 N1         -1.2030   -0.7222    0.0101 N.am      1 <0>        -0.4730
      8 C7         -1.1696   -2.0403   -0.0930 C.2       1 <0>         0.5421
      9 O1         -0.1216   -2.6487   -0.1945 O.2       1 <0>        -0.4408
     10 C8         -2.4800   -2.7371   -0.0777 C.2       1 <0>        -0.1741
     11 C9         -2.7523   -4.0445   -0.1633 C.2       1 <0>        -0.0067
     12 C10        -1.6296   -5.0408   -0.2980 C.3       1 <0>        -0.1262
     13 H1         -0.6924   -4.4843   -0.3045 H         1 <0>         0.2024
     14 C11        -1.7737   -5.7244   -1.6432 C.2       1 <0>         0.1352
     15 C12        -1.9001   -7.0787   -1.6459 C.ar      1 <0>        -0.1643
     16 C13        -2.0454   -7.8150   -2.9021 C.ar      1 <0>        -0.0008
     17 C14        -2.1692   -9.1695   -2.8720 C.ar      1 <0>         0.0199
     18 C15        -2.1573   -9.8746   -1.6516 C.ar      1 <0>         0.2877
     19 C16        -2.0259   -9.2260   -0.4400 C.ar      1 <0>        -0.2467
     20 C17        -1.8941   -7.8336   -0.3791 C.ar      1 <0>         0.3638
     21 N2         -1.7678   -7.2271    0.8038 N.am      1 <0>        -0.5945
     22 C18        -1.6389   -5.9191    0.9326 C.2       1 <0>         0.5292
     23 O2         -1.5278   -5.4230    2.0381 O.2       1 <0>        -0.4199
     24 O3         -2.2722  -11.2299   -1.6434 O.3       1 <0>        -0.2649
     25 C19        -2.7854  -11.8428   -2.8295 C.3       1 <0>         0.0063
     26 C20        -2.0551  -11.2411   -4.0374 C.3       1 <0>         0.0138
     27 O4         -2.3075   -9.8326   -4.0553 O.3       1 <0>        -0.2872
     28 S1         -3.5942   -1.3490    0.0876 S.3       1 <0>         0.1008
     29 C21        -2.3671   -0.0527    0.1284 C.2       1 <0>         0.2461
     30 S2         -2.6105    1.6352    0.2790 S.2       1 <0>        -0.2229
     31 O5          3.5478    2.1100   -0.0218 O.3       1 <0>        -0.4947
     32 H2          0.0182    0.2469   -2.1264 H         1 <0>         0.1324
     33 H3          2.1343    1.5031   -2.1401 H         1 <0>         0.1453
     34 H4          2.3629    1.1675    2.1140 H         1 <0>         0.1453
     35 H5          0.2495   -0.0930    2.1290 H         1 <0>         0.1324
     36 H6         -3.7766   -4.3857   -0.1358 H         1 <0>         0.1744
     37 H7         -1.7763   -5.1585   -2.5631 H         1 <0>         0.2017
     38 H8         -2.0539   -7.2879   -3.8448 H         1 <0>         0.1879
     39 H9         -2.0247   -9.8011    0.4741 H         1 <0>         0.1832
     40 H10        -2.6104  -12.9180   -2.7926 H         1 <0>         0.1537
     41 H11        -3.8545  -11.6467   -2.9113 H         1 <0>         0.1081
     42 H12        -0.9840  -11.4217   -3.9472 H         1 <0>         0.0965
     43 H13        -2.4289  -11.6934   -4.9560 H         1 <0>         0.1496
     44 H14         3.4359    3.0670    0.0596 H         1 <0>         0.4030
     45 H15        -1.7713   -7.7728    1.6058 H         1 <0>         0.4418
@<TRIPOS>BOND
     1    1    6 ar
     2    1    2 ar
     3    1   32 1
     4    2    3 ar
     5    2   33 1
     6    3    4 ar
     7    3   31 1
     8    4    5 ar
     9    4   34 1
    10    5    6 ar
    11    5   35 1
    12    6    7 1
    13    7   29 1
    14    7    8 am
    15    8    9 2
    16    8   10 1
    17   10   11 2
    18   10   28 1
    19   11   12 1
    20   11   36 1
    21   12   13 1
    22   12   22 1
    23   12   14 1
    24   14   15 2
    25   14   37 1
    26   15   20 ar
    27   15   16 ar
    28   16   17 ar
    29   16   38 1
    30   17   27 1
    31   17   18 ar
    32   18   19 ar
    33   18   24 1
    34   19   20 ar
    35   19   39 1
    36   20   21 2
    37   21   22 am
    38   21   45 1
    39   22   23 2
    40   24   25 1
    41   25   26 1
    42   25   40 1
    43   25   41 1
    44   26   27 1
    45   26   42 1
    46   26   43 1
    47   28   29 1
    48   29   30 2
    49   31   44 1
@<TRIPOS>MOLECULE
ZINC39708404
   38    41     0     0     0
SMALL
USER_CHARGES

@<TRIPOS>ATOM
      1 C1         -0.0168    1.3874    0.0097 C.ar      1 <0>        -0.0864
      2 C2          1.1532    2.0944    0.0023 C.ar      1 <0>         0.0456
      3 C3          2.3714    1.4171   -0.0129 C.ar      1 <0>        -0.1593
      4 C4          2.3999    0.0121   -0.0207 C.ar      1 <0>         0.0552
      5 C5          1.2028   -0.6913   -0.0137 C.ar      1 <0>        -0.0432
      6 C6          0.0021   -0.0041    0.0020 C.ar      1 <0>         0.1701
      7 O1         -1.1691   -0.6939    0.0099 O.3       1 <0>        -0.6515
      8 S1         -1.7163   -1.0006   -1.3768 S.o2      1 <0>         2.6681
      9 O2         -3.0224   -1.5285   -1.1905 O.2       1 <0>        -0.8950
     10 O3         -1.4654    0.1476   -2.1755 O.2       1 <0>        -0.9360
     11 C7         -0.7374   -2.3036   -2.0467 C.ar      1 <0>        -0.7198
     12 C8          0.4557   -1.9683   -2.8146 C.ar      1 <0>        -0.0480
     13 C9          1.2497   -2.9182   -3.3547 C.ar      1 <0>        -0.1039
     14 C10         0.9139   -4.3286   -3.1711 C.ar      1 <0>         0.1259
     15 N1          1.4495   -5.4623   -3.5481 N.am      1 <0>        -0.5890
     16 C11         0.6726   -6.4902   -3.0684 C.2       1 <0>         0.6569
     17 O4          0.8931   -7.6702   -3.2411 O.2       1 <0>        -0.5098
     18 N2         -0.3916   -5.9797   -2.3630 N.am      1 <0>        -0.5910
     19 C12        -0.3117   -4.6731   -2.3822 C.ar      1 <0>         0.0368
     20 C13        -1.1120   -3.5827   -1.8284 C.ar      1 <0>         0.0421
     21 O5          3.6950   -0.3620   -0.0350 O.3       1 <0>        -0.1063
     22 C14         4.5046    0.7122   -0.0370 C.2       1 <0>         0.3166
     23 C15         3.7783    1.8377   -0.0241 C.2       1 <0>        -0.0732
     24 C16         4.3003    3.2514   -0.0220 C.3       1 <0>        -0.0246
     25 C17         4.3714    3.7585    1.3954 C.2       1 <0>         0.5180
     26 O6          4.0300    3.0386    2.3183 O.co2     1 <0>        -0.3660
     27 O7          4.7705    4.8886    1.6192 O.co2     1 <0>        -0.3155
     28 H1         -0.9609    1.9116    0.0260 H         1 <0>         0.1860
     29 H2          1.1338    3.1742    0.0079 H         1 <0>         0.1795
     30 H3          1.2089   -1.7713   -0.0203 H         1 <0>         0.1864
     31 H4          0.7123   -0.9288   -2.9563 H         1 <0>         0.1435
     32 H5          2.1268   -2.6373   -3.9188 H         1 <0>         0.1469
     33 H6         -1.9993   -3.7984   -1.2517 H         1 <0>         0.1583
     34 H7          5.5838    0.6729   -0.0475 H         1 <0>         0.2796
     35 H8          5.2957    3.2718   -0.4656 H         1 <0>         0.2012
     36 H9          3.6309    3.8867   -0.6020 H         1 <0>         0.2080
     37 H10        -1.0840   -6.4994   -1.9255 H         1 <0>         0.4475
     38 H11         2.2571   -5.5603   -4.0764 H         1 <0>         0.4465
@<TRIPOS>BOND
     1    1    6 ar
     2    1    2 ar
     3    1   28 1
     4    2    3 ar
     5    2   29 1
     6    3   23 1
     7    3    4 ar
     8    4    5 ar
     9    4   21 1
    10    5    6 ar
    11    5   30 1
    12    6    7 1
    13    7    8 1
    14    8    9 2
    15    8   10 2
    16    8   11 1
    17   11   20 ar
    18   11   12 ar
    19   12   13 ar
    20   12   31 1
    21   13   14 ar
    22   13   32 1
    23   14   19 ar
    24   14   15 2
    25   15   16 am
    26   15   38 1
    27   16   17 2
    28   16   18 am
    29   18   19 2
    30   18   37 1
    31   19   20 ar
    32   20   33 1
    33   21   22 1
    34   22   23 2
    35   22   34 1
    36   23   24 1
    37   24   25 1
    38   24   35 1
    39   24   36 1
    40   25   26 2
    41   25   27 1
@<TRIPOS>MOLECULE
ZINC39734325
   54    57     0     0     0
SMALL
USER_CHARGES

@<TRIPOS>ATOM
      1 C1         -0.0046    1.0517   -0.5241 C.3       1 <0>        -0.1678
      2 C2          0.0778   -0.4530   -0.2593 C.3       1 <0>         0.0694
      3 H1         -0.9173   -0.8966   -0.2277 H         1 <0>         0.1119
      4 C3          0.9638   -1.1543   -1.3180 C.3       1 <0>        -0.1223
      5 C4          2.3148   -1.1751   -0.6232 C.2       1 <0>        -0.2402
      6 C5          2.1060   -0.9151    0.6493 C.2       1 <0>         0.0181
      7 O1          0.8020   -0.7237    0.9568 O.3       1 <0>        -0.3049
      8 C6          3.2136   -0.8375    1.6682 C.3       1 <0>         0.1310
      9 H2          4.1741   -0.9772    1.1721 H         1 <0>         0.1177
     10 C7          3.1856    0.5324    2.3488 C.3       1 <0>         0.1204
     11 N1          4.1910    0.5694    3.4137 N.am      1 <0>        -0.6818
     12 C8          4.4167    1.7143    4.0880 C.2       1 <0>         0.5352
     13 O2          3.7862    2.7159    3.8127 O.2       1 <0>        -0.4849
     14 C9          5.4307    1.7516    5.1620 C.2       1 <0>         0.1036
     15 C10         5.6045    2.8704    5.9493 C.ar      1 <0>        -0.1300
     16 C11         4.7871    4.0673    5.7498 C.ar      1 <0>         0.0087
     17 C12         4.9955    5.1420    6.5497 C.ar      1 <0>        -0.1707
     18 C13         5.9705    5.1274    7.5548 C.ar      1 <0>         0.1012
     19 C14         6.7614    4.0529    7.7926 C.ar      1 <0>        -0.2336
     20 C15         6.6270    2.8806    7.0173 C.ar      1 <0>         0.3634
     21 N2          7.4032    1.8334    7.2560 N.am      1 <0>        -0.5895
     22 C16         7.3318    0.7008    6.5671 C.2       1 <0>         0.5212
     23 O3          8.0736   -0.2233    6.8374 O.2       1 <0>        -0.4205
     24 C17         6.3218    0.5588    5.4510 C.3       1 <0>        -0.1681
     25 N3          3.0259   -1.8892    2.6766 N.3       1 <0>        -0.5290
     26 C18         1.7487   -1.7185    3.3843 C.3       1 <0>         0.0039
     27 C19         1.6213   -2.7970    4.4634 C.3       1 <0>         0.0650
     28 O4          1.7360   -4.0871    3.8569 O.3       1 <0>        -0.3790
     29 C20         2.9683   -4.2878    3.1594 C.3       1 <0>         0.0640
     30 C21         3.1093   -3.2244    2.0671 C.3       1 <0>         0.0150
     31 H3          1.0003    1.4736   -0.5387 H         1 <0>         0.0606
     32 H4         -0.4856    1.2254   -1.4867 H         1 <0>         0.0765
     33 H5         -0.5872    1.5280    0.2644 H         1 <0>         0.0673
     34 H6          0.6102   -2.1665   -1.5144 H         1 <0>         0.0860
     35 H7          1.0071   -0.5721   -2.2385 H         1 <0>         0.0892
     36 H8          3.2702   -1.3683   -1.0881 H         1 <0>         0.1471
     37 H9          3.4053    1.3075    1.6146 H         1 <0>         0.0961
     38 H10         2.1977    0.7059    2.7757 H         1 <0>         0.0944
     39 H11         4.6943   -0.2302    3.6335 H         1 <0>         0.4166
     40 H12         4.0313    4.0944    4.9788 H         1 <0>         0.2030
     41 H13         4.3963    6.0293    6.4083 H         1 <0>         0.1673
     42 H14         6.0977    6.0091    8.1655 H         1 <0>         0.1696
     43 H15         7.4992    4.0937    8.5802 H         1 <0>         0.1740
     44 H16         5.6792   -0.2906    5.6825 H         1 <0>         0.1810
     45 H17         6.8684    0.3206    4.5385 H         1 <0>         0.1801
     46 H18         1.7191   -0.7331    3.8493 H         1 <0>         0.0835
     47 H19         0.9250   -1.8126    2.6766 H         1 <0>         0.0764
     48 H20         2.4140   -2.6697    5.2006 H         1 <0>         0.0537
     49 H21         0.6511   -2.7097    4.9525 H         1 <0>         0.0999
     50 H22         3.8002   -4.2038    3.8587 H         1 <0>         0.0591
     51 H23         2.9723   -5.2788    2.7054 H         1 <0>         0.1025
     52 H24         2.3074   -3.3426    1.3383 H         1 <0>         0.0565
     53 H25         4.0729   -3.3383    1.5705 H         1 <0>         0.0897
     54 H26         8.0566    1.8978    7.9699 H         1 <0>         0.4423
@<TRIPOS>BOND
     1    1    2 1
     2    1   31 1
     3    1   32 1
     4    1   33 1
     5    2    3 1
     6    2    7 1
     7    2    4 1
     8    4    5 1
     9    4   34 1
    10    4   35 1
    11    5    6 2
    12    5   36 1
    13    6    7 1
    14    6    8 1
    15    8    9 1
    16    8   10 1
    17    8   25 1
    18   10   11 1
    19   10   37 1
    20   10   38 1
    21   11   12 am
    22   11   39 1
    23   12   13 2
    24   12   14 1
    25   14   24 1
    26   14   15 2
    27   15   20 ar
    28   15   16 ar
    29   16   17 ar
    30   16   40 1
    31   17   18 ar
    32   17   41 1
    33   18   19 ar
    34   18   42 1
    35   19   20 ar
    36   19   43 1
    37   20   21 2
    38   21   22 am
    39   21   54 1
    40   22   23 2
    41   22   24 1
    42   24   44 1
    43   24   45 1
    44   25   30 1
    45   25   26 1
    46   26   27 1
    47   26   46 1
    48   26   47 1
    49   27   28 1
    50   27   48 1
    51   27   49 1
    52   28   29 1
    53   29   30 1
    54   29   50 1
    55   29   51 1
    56   30   52 1
    57   30   53 1
@<TRIPOS>MOLECULE
ZINC43019550
   44    48     0     0     0
SMALL
USER_CHARGES

@<TRIPOS>ATOM
      1 C1          0.0187    1.4359   -0.0222 C.ar      1 <0>        -0.1266
      2 C2          1.1605    2.1613   -0.0415 C.ar      1 <0>         0.0054
      3 C3          2.4141    1.4969   -0.0575 C.ar      1 <0>         0.0672
      4 C4          2.4285    0.0215   -0.0524 C.ar      1 <0>         0.1275
      5 C5          1.1883   -0.6673   -0.0318 C.ar      1 <0>        -0.6643
      6 C6          0.0324    0.0356   -0.0174 C.ar      1 <0>         0.0843
      7 S1          1.1537   -2.4289   -0.0244 S.o2      1 <0>         2.6780
      8 O1          2.0561   -2.8486    0.9899 O.2       1 <0>        -0.8974
      9 O2         -0.2157   -2.8082   -0.0302 O.2       1 <0>        -0.9194
     10 N1          1.7917   -2.9372   -1.4655 N.pl3     1 <0>        -0.8229
     11 C7          2.9509   -3.6504   -1.6048 C.2       1 <0>         0.0656
     12 C8          3.1812   -3.9009   -2.9038 C.2       1 <0>        -0.1291
     13 C9          2.0799   -3.2995   -3.6604 C.ar      1 <0>         0.0895
     14 C10         1.2323   -2.7108   -2.7026 C.ar      1 <0>         0.0944
     15 C11         0.0809   -2.0582   -3.1305 C.ar      1 <0>        -0.1549
     16 C12        -0.1847   -2.0191   -4.4934 C.ar      1 <0>         0.1713
     17 C13         0.6988   -2.6270   -5.3824 C.ar      1 <0>         0.0552
     18 N2          1.7856   -3.2319   -4.9552 N.ar      1 <0>        -0.4008
     19 N3         -1.3309   -1.3744   -4.9697 N.pl3     1 <0>        -0.6374
     20 C14        -1.5683   -1.2217   -6.4134 C.3       1 <0>         0.0976
     21 C15        -2.9863   -1.7104   -6.7269 C.3       1 <0>        -0.0244
     22 N4         -3.9478   -0.9979   -5.8761 N.4       1 <0>        -0.5041
     23 C16        -3.7156   -1.3373   -4.4665 C.3       1 <0>        -0.0237
     24 C17        -2.3364   -0.8351   -4.0411 C.3       1 <0>         0.0922
     25 N5          3.6802   -0.3743   -0.0693 N.2       1 <0>        -0.2485
     26 O3          4.5030    0.7795   -0.0854 O.3       1 <0>         0.0905
     27 N6          3.6577    1.9171   -0.0771 N.2       1 <0>        -0.2251
     28 H1         -0.9302    1.9514   -0.0056 H         1 <0>         0.1674
     29 H2          1.1180    3.2404   -0.0451 H         1 <0>         0.1679
     30 H3         -0.9062   -0.4983   -0.0017 H         1 <0>         0.1701
     31 H4          3.5868   -3.9649   -0.7905 H         1 <0>         0.2050
     32 H5          4.0204   -4.4433   -3.3137 H         1 <0>         0.1731
     33 H6         -0.5892   -1.5945   -2.4217 H         1 <0>         0.1377
     34 H7          0.4907   -2.5959   -6.4417 H         1 <0>         0.1631
     35 H8         -1.4727   -0.1721   -6.6914 H         1 <0>         0.0947
     36 H9         -0.8442   -1.8180   -6.9687 H         1 <0>         0.1297
     37 H10        -3.2144   -1.5158   -7.7749 H         1 <0>         0.1473
     38 H11        -3.0529   -2.7809   -6.5331 H         1 <0>         0.1371
     39 H12        -3.8359   -0.0033   -6.0041 H         1 <0>         0.4288
     40 H13        -4.4811   -0.8678   -3.8487 H         1 <0>         0.1470
     41 H14        -3.7602   -2.4191   -4.3410 H         1 <0>         0.1372
     42 H15        -2.1200   -1.1760   -3.0286 H         1 <0>         0.1253
     43 H16        -2.3198    0.2542   -4.0753 H         1 <0>         0.0932
     44 H17        -4.8859   -1.2644   -6.1348 H         1 <0>         0.4355
@<TRIPOS>BOND
     1    1    6 ar
     2    1    2 ar
     3    1   28 1
     4    2    3 ar
     5    2   29 1
     6    3   27 2
     7    3    4 ar
     8    4    5 ar
     9    4   25 2
    10    5    6 ar
    11    5    7 1
    12    6   30 1
    13    7    8 2
    14    7    9 2
    15    7   10 1
    16   10   14 1
    17   10   11 1
    18   11   12 2
    19   11   31 1
    20   12   13 1
    21   12   32 1
    22   13   18 ar
    23   13   14 ar
    24   14   15 ar
    25   15   16 ar
    26   15   33 1
    27   16   17 ar
    28   16   19 1
    29   17   18 ar
    30   17   34 1
    31   19   24 1
    32   19   20 1
    33   20   21 1
    34   20   35 1
    35   20   36 1
    36   21   22 1
    37   21   37 1
    38   21   38 1
    39   22   23 1
    40   22   39 1
    41   22   44 1
    42   23   24 1
    43   23   40 1
    44   23   41 1
    45   24   42 1
    46   24   43 1
    47   25   26 1
    48   26   27 1
@<TRIPOS>MOLECULE
ZINC44606365
   55    58     0     0     0
SMALL
USER_CHARGES

@<TRIPOS>ATOM
      1 C1         -0.0173    1.4248    0.0099 C.3       1 <0>         0.0239
      2 O1          0.0021   -0.0041    0.0020 O.3       1 <0>        -0.3113
      3 C2          0.6062   -0.6075   -1.0563 C.ar      1 <0>         0.0804
      4 C3          1.1729    0.1613   -2.0623 C.ar      1 <0>        -0.1122
      5 C4          1.7860   -0.4515   -3.1375 C.ar      1 <0>        -0.1836
      6 C5          1.8355   -1.8358   -3.2112 C.ar      1 <0>         0.1864
      7 C6          1.2694   -2.6044   -2.2052 C.ar      1 <0>        -0.6727
      8 C7          0.6606   -1.9914   -1.1272 C.ar      1 <0>        -0.0196
      9 S1          1.3322   -4.3628   -2.2988 S.o2      1 <0>         2.6982
     10 O2          2.6796   -4.7060   -2.5923 O.2       1 <0>        -0.9345
     11 O3          0.6533   -4.8551   -1.1516 O.2       1 <0>        -0.9481
     12 N1          0.4315   -4.8157   -3.6125 N.pl3     1 <0>        -0.9949
     13 C8         -1.0058   -5.0901   -3.4753 C.3       1 <0>         0.1046
     14 C9         -1.7704   -4.2067   -4.4689 C.3       1 <0>         0.1038
     15 N2         -1.1469   -4.3410   -5.7930 N.pl3     1 <0>        -0.5603
     16 C10         0.2904   -4.0666   -5.9302 C.3       1 <0>         0.1077
     17 C11         1.0539   -4.9446   -4.9376 C.3       1 <0>         0.1087
     18 C12        -1.8997   -4.7195   -6.8910 C.ar      1 <0>         0.5911
     19 N3         -3.1946   -4.9555   -6.7376 N.ar      1 <0>        -0.5583
     20 C13        -3.9407   -5.3196   -7.7666 C.ar      1 <0>         0.2410
     21 C14        -3.3519   -5.4526   -9.0170 C.ar      1 <0>        -0.3335
     22 C15        -2.0013   -5.1970   -9.1421 C.ar      1 <0>         0.2313
     23 N4         -1.3104   -4.8322   -8.0715 N.ar      1 <0>        -0.5616
     24 C16        -1.3000   -5.3154  -10.4693 C.3       1 <0>        -0.1018
     25 C17        -2.1698   -6.1147  -11.4414 C.3       1 <0>         0.0003
     26 N5         -3.5220   -5.5362  -11.4497 N.4       1 <0>        -0.5057
     27 C18        -4.1945   -5.8699  -10.1899 C.3       1 <0>         0.0718
     28 O4          2.4388   -2.4392   -4.2700 O.3       1 <0>        -0.3153
     29 C19         3.0003   -1.5861   -5.2694 C.3       1 <0>         0.0230
     30 H1          1.0053    1.8021    0.0021 H         1 <0>         0.0578
     31 H2         -0.5445    1.7859   -0.8732 H         1 <0>         0.0561
     32 H3         -0.5275    1.7763    0.9067 H         1 <0>         0.1073
     33 H4          1.1343    1.2391   -2.0050 H         1 <0>         0.1416
     34 H5          2.2266    0.1471   -3.9211 H         1 <0>         0.1417
     35 H6          0.2233   -2.5899   -0.3417 H         1 <0>         0.1596
     36 H7         -1.2003   -6.1400   -3.6944 H         1 <0>         0.0840
     37 H8         -1.3267   -4.8603   -2.4593 H         1 <0>         0.1119
     38 H9         -2.8104   -4.5291   -4.5199 H         1 <0>         0.1158
     39 H10        -1.7225   -3.1668   -4.1458 H         1 <0>         0.0808
     40 H11         0.6114   -4.2965   -6.9462 H         1 <0>         0.1109
     41 H12         0.4849   -3.0167   -5.7111 H         1 <0>         0.0800
     42 H13         2.0928   -4.6186   -4.8871 H         1 <0>         0.1183
     43 H14         1.0093   -5.9839   -5.2632 H         1 <0>         0.0783
     44 H15        -4.9954   -5.5116   -7.6361 H         1 <0>         0.1786
     45 H16        -1.1224   -4.3198  -10.8758 H         1 <0>         0.1178
     46 H17        -0.3468   -5.8258  -10.3316 H         1 <0>         0.1371
     47 H18        -1.7430   -6.0609  -12.4429 H         1 <0>         0.1464
     48 H19        -2.2190   -7.1545  -11.1179 H         1 <0>         0.1371
     49 H20        -3.4593   -4.5335  -11.5433 H         1 <0>         0.4312
     50 H21        -4.3649   -6.9456  -10.1464 H         1 <0>         0.1372
     51 H22        -5.1538   -5.3542  -10.1460 H         1 <0>         0.1397
     52 H23         2.2158   -0.9613   -5.6963 H         1 <0>         0.0588
     53 H24         3.7644   -0.9526   -4.8189 H         1 <0>         0.0652
     54 H25         3.4490   -2.1936   -6.0554 H         1 <0>         0.1100
     55 H26        -4.0468   -5.9161  -12.2232 H         1 <0>         0.4380
@<TRIPOS>BOND
     1    1    2 1
     2    1   30 1
     3    1   31 1
     4    1   32 1
     5    2    3 1
     6    3    8 ar
     7    3    4 ar
     8    4    5 ar
     9    4   33 1
    10    5    6 ar
    11    5   34 1
    12    6    7 ar
    13    6   28 1
    14    7    8 ar
    15    7    9 1
    16    8   35 1
    17    9   10 2
    18    9   11 2
    19    9   12 1
    20   12   17 1
    21   12   13 1
    22   13   14 1
    23   13   36 1
    24   13   37 1
    25   14   15 1
    26   14   38 1
    27   14   39 1
    28   15   16 1
    29   15   18 1
    30   16   17 1
    31   16   40 1
    32   16   41 1
    33   17   42 1
    34   17   43 1
    35   18   23 ar
    36   18   19 ar
    37   19   20 ar
    38   20   21 ar
    39   20   44 1
    40   21   27 1
    41   21   22 ar
    42   22   23 ar
    43   22   24 1
    44   24   25 1
    45   24   45 1
    46   24   46 1
    47   25   26 1
    48   25   47 1
    49   25   48 1
    50   26   27 1
    51   26   49 1
    52   26   55 1
    53   27   50 1
    54   27   51 1
    55   28   29 1
    56   29   52 1
    57   29   53 1
    58   29   54 1
@<TRIPOS>MOLECULE
ZINC20479653
   46    49     0     0     0
SMALL
USER_CHARGES

@<TRIPOS>ATOM
      1 C1         -0.0349    1.7045   -0.0116 C.3       1 <0>        -0.1339
      2 C2         -0.1159    0.2000   -0.0416 C.ar      1 <0>        -0.0069
      3 C3         -0.1559   -0.4663   -1.2510 C.ar      1 <0>        -0.1042
      4 C4         -0.2308   -1.8466   -1.2793 C.ar      1 <0>        -0.0223
      5 C5         -0.2654   -2.5644   -0.0977 C.ar      1 <0>        -0.0436
      6 C6         -0.2258   -1.9041    1.1145 C.ar      1 <0>        -0.0315
      7 C7         -0.1448   -0.5181    1.1462 C.ar      1 <0>         0.0718
      8 N1         -0.0985    0.1545    2.3746 N.pl3     1 <0>        -0.3799
      9 C8         -1.1942    0.5844    3.0710 C.2       1 <0>         0.0620
     10 C9         -0.7909    1.1878    4.2013 C.2       1 <0>        -0.1847
     11 C10         0.6777    1.1260    4.2045 C.2       1 <0>        -0.2723
     12 C11         1.0321    0.4646    3.0402 C.2       1 <0>         0.1835
     13 C12         2.4365    0.1493    2.5938 C.3       1 <0>        -0.1225
     14 C13         1.5524    1.6343    5.1988 C.2       1 <0>         0.2187
     15 C14         1.1141    1.7676    6.5005 C.2       1 <0>        -0.3362
     16 C15        -0.1937    1.2140    6.9483 C.cat     1 <0>         0.6357
     17 N2         -0.7143    0.1186    6.4605 N.pl3     1 <0>        -0.6759
     18 N3         -0.8157    1.9877    7.9513 N.pl3     1 <0>        -0.4210
     19 C16        -0.0092    2.7980    8.7216 C.2       1 <0>         0.3741
     20 N4          1.2735    3.0159    8.5769 N.2       1 <0>        -0.4899
     21 C17         1.9229    2.4643    7.5292 C.2       1 <0>         0.5531
     22 O1          3.1371    2.5396    7.4288 O.2       1 <0>        -0.4078
     23 S1         -1.1594    3.4532    9.9014 S.3       1 <0>         0.1807
     24 C18        -2.6349    2.6942    9.2363 C.2       1 <0>         0.1626
     25 N5         -2.1634    1.9989    8.2413 N.2       1 <0>        -0.2855
     26 C19        -2.6272    0.4090    2.6388 C.3       1 <0>        -0.1037
     27 N6         -0.3456   -4.0421   -0.1324 N.pl3     1 <0>         0.0278
     28 O2         -0.3807   -4.6208   -1.1933 O.2       1 <0>        -0.1318
     29 O3         -0.3759   -4.6702    0.9002 O.3       1 <0>        -0.1495
     30 H1          1.0108    2.0121   -0.0127 H         1 <0>         0.0938
     31 H2         -0.5347    2.1129   -0.8899 H         1 <0>         0.0932
     32 H3         -0.5221    2.0767    0.8896 H         1 <0>         0.0755
     33 H4         -0.1290    0.0916   -2.1753 H         1 <0>         0.1663
     34 H5         -0.2626   -2.3652   -2.2261 H         1 <0>         0.1701
     35 H6         -0.2535   -2.4652    2.0369 H         1 <0>         0.1609
     36 H7         -1.4212    1.6312    4.9579 H         1 <0>         0.1512
     37 H8          2.8198    0.9729    1.9914 H         1 <0>         0.1068
     38 H9          3.0732    0.0115    3.4677 H         1 <0>         0.1054
     39 H10         2.4324   -0.7644    1.9995 H         1 <0>         0.0871
     40 H11         2.5613    1.9170    4.9371 H         1 <0>         0.1794
     41 H12        -0.2080   -0.4219    5.8340 H         1 <0>         0.4553
     42 H13        -3.6565    2.7877    9.5740 H         1 <0>         0.2843
     43 H14        -3.0116   -0.5334    3.0290 H         1 <0>         0.0870
     44 H15        -3.2266    1.2335    3.0247 H         1 <0>         0.0955
     45 H16        -2.6798    0.4000    1.5501 H         1 <0>         0.0769
     46 H17        -1.6069   -0.1538    6.7250 H         1 <0>         0.4445
@<TRIPOS>BOND
     1    1    2 1
     2    1   30 1
     3    1   31 1
     4    1   32 1
     5    2    7 ar
     6    2    3 ar
     7    3    4 ar
     8    3   33 1
     9    4    5 ar
    10    4   34 1
    11    5    6 ar
    12    5   27 1
    13    6    7 ar
    14    6   35 1
    15    7    8 1
    16    8   12 1
    17    8    9 1
    18    9   10 2
    19    9   26 1
    20   10   11 1
    21   10   36 1
    22   11   12 2
    23   11   14 1
    24   12   13 1
    25   13   37 1
    26   13   38 1
    27   13   39 1
    28   14   15 2
    29   14   40 1
    30   15   21 1
    31   15   16 1
    32   16   17 2
    33   16   18 1
    34   17   41 1
    35   17   46 1
    36   18   25 1
    37   18   19 1
    38   19   20 2
    39   19   23 1
    40   20   21 1
    41   21   22 2
    42   23   24 1
    43   24   25 2
    44   24   42 1
    45   26   43 1
    46   26   44 1
    47   26   45 1
    48   27   28 2
    49   27   29 1
@<TRIPOS>MOLECULE
ZINC36024653
   56    60     0     0     0
SMALL
USER_CHARGES

@<TRIPOS>ATOM
      1 C1          0.0647    1.5633    0.3183 C.3       1 <0>        -0.1704
      2 C2          0.0035    0.0497    0.1033 C.3       1 <0>         0.0012
      3 H1          0.4050   -0.2102   -0.8762 H         1 <0>         0.1793
      4 C3         -1.4206   -0.4444    0.2372 C.2       1 <0>         0.5162
      5 O1         -2.4011    0.0798   -0.2472 O.2       1 <0>        -0.4404
      6 N1         -1.4154   -1.5670    0.9859 N.am      1 <0>        -0.6119
      7 C4         -0.0404   -1.8861    1.3793 C.3       1 <0>         0.2874
      8 N2          0.7529   -0.6543    1.1719 N.4       1 <0>        -0.5158
      9 C5          0.0080   -2.2907    2.8514 C.3       1 <0>        -0.1573
     10 C6         -0.8454   -3.5458    3.0619 C.3       1 <0>         0.1016
     11 N3         -0.3959   -4.5853    2.1259 N.pl3     1 <0>        -1.0015
     12 C7         -0.3359   -4.2684    0.6925 C.3       1 <0>         0.1135
     13 C8          0.5135   -3.0073    0.5020 C.3       1 <0>        -0.1560
     14 S1          0.0358   -6.0863    2.6765 S.o2      1 <0>         2.7030
     15 O2          0.9124   -6.6389    1.7042 O.2       1 <0>        -0.9539
     16 O3          0.4111   -5.9271    4.0378 O.2       1 <0>        -0.9264
     17 C9         -1.4177   -7.0822    2.6680 C.ar      1 <0>        -0.6739
     18 C10        -1.5015   -8.1615    1.8430 C.ar      1 <0>         0.0300
     19 C11        -2.6413   -8.9623    1.8204 C.ar      1 <0>        -0.1494
     20 C12        -3.7050   -8.6866    2.6246 C.ar      1 <0>        -0.0239
     21 C13        -3.6533   -7.5813    3.4887 C.ar      1 <0>        -0.1246
     22 C14        -2.4928   -6.7685    3.5173 C.ar      1 <0>         0.2033
     23 N4         -2.4371   -5.7173    4.3415 N.ar      1 <0>        -0.4956
     24 C15        -3.4370   -5.4201    5.1353 C.ar      1 <0>         0.1653
     25 C16        -4.6041   -6.1808    5.1608 C.ar      1 <0>        -0.1814
     26 C17        -4.7314   -7.2617    4.3356 C.ar      1 <0>        -0.0356
     27 C18        -2.6015   -2.3463    1.3496 C.3       1 <0>         0.1955
     28 C19        -3.2257   -1.7614    2.5903 C.2       1 <0>        -0.0803
     29 C20        -4.2440   -0.8830    2.6195 C.2       1 <0>        -0.1537
     30 C21        -4.5065   -0.6052    3.9806 C.2       1 <0>        -0.2142
     31 C22        -3.6329   -1.3305    4.7019 C.2       1 <0>        -0.0183
     32 O4         -2.8634   -2.0333    3.8547 O.3       1 <0>        -0.1684
     33 H2          1.1018    1.8954    0.2709 H         1 <0>         0.0987
     34 H3         -0.5131    2.0643   -0.4585 H         1 <0>         0.1194
     35 H4         -0.3511    1.8086    1.2956 H         1 <0>         0.0855
     36 H5          1.6874   -0.8779    0.8638 H         1 <0>         0.4485
     37 H6          1.0388   -2.4996    3.1374 H         1 <0>         0.1129
     38 H7         -0.3823   -1.4785    3.4648 H         1 <0>         0.1081
     39 H8         -0.7276   -3.9004    4.0859 H         1 <0>         0.1335
     40 H9         -1.8929   -3.3116    2.8723 H         1 <0>         0.1074
     41 H10         0.1180   -5.0997    0.1531 H         1 <0>         0.1232
     42 H11        -1.3430   -4.0912    0.3149 H         1 <0>         0.0835
     43 H12         0.4803   -2.7011   -0.5436 H         1 <0>         0.1086
     44 H13         1.5445   -3.2168    0.7873 H         1 <0>         0.1156
     45 H14        -0.6711   -8.4008    1.1952 H         1 <0>         0.1525
     46 H15        -2.6819   -9.8128    1.1559 H         1 <0>         0.1445
     47 H16        -4.5834   -9.3143    2.5976 H         1 <0>         0.1434
     48 H17        -3.3539   -4.5630    5.7870 H         1 <0>         0.1646
     49 H18        -5.4108   -5.9108    5.8262 H         1 <0>         0.1452
     50 H19        -5.6293   -7.8618    4.3416 H         1 <0>         0.1463
     51 H20        -3.3213   -2.3155    0.5317 H         1 <0>         0.1273
     52 H21        -2.3126   -3.3798    1.5408 H         1 <0>         0.1337
     53 H22        -4.7614   -0.4690    1.7667 H         1 <0>         0.1515
     54 H23        -5.2630    0.0616    4.3672 H         1 <0>         0.1542
     55 H24        -3.5645   -1.3478    5.7796 H         1 <0>         0.2101
     56 H25         0.7768   -0.1002    2.0148 H         1 <0>         0.4382
@<TRIPOS>BOND
     1    1    2 1
     2    1   33 1
     3    1   34 1
     4    1   35 1
     5    2    3 1
     6    2    8 1
     7    2    4 1
     8    4    5 2
     9    4    6 am
    10    6    7 1
    11    6   27 1
    12    7   13 1
    13    7    8 1
    14    7    9 1
    15    8   36 1
    16    8   56 1
    17    9   10 1
    18    9   37 1
    19    9   38 1
    20   10   11 1
    21   10   39 1
    22   10   40 1
    23   11   12 1
    24   11   14 1
    25   12   13 1
    26   12   41 1
    27   12   42 1
    28   13   43 1
    29   13   44 1
    30   14   15 2
    31   14   16 2
    32   14   17 1
    33   17   22 ar
    34   17   18 ar
    35   18   19 ar
    36   18   45 1
    37   19   20 ar
    38   19   46 1
    39   20   21 ar
    40   20   47 1
    41   21   26 ar
    42   21   22 ar
    43   22   23 ar
    44   23   24 ar
    45   24   25 ar
    46   24   48 1
    47   25   26 ar
    48   25   49 1
    49   26   50 1
    50   27   28 1
    51   27   51 1
    52   27   52 1
    53   28   32 1
    54   28   29 2
    55   29   30 1
    56   29   53 1
    57   30   31 2
    58   30   54 1
    59   31   32 1
    60   31   55 1
@<TRIPOS>MOLECULE
ZINC52407618
   49    52     0     0     0
SMALL
USER_CHARGES

@<TRIPOS>ATOM
      1 C1         -0.1602    1.3172    0.0162 C.ar      1 <0>        -0.0666
      2 C2          1.0452    2.0025    0.0304 C.ar      1 <0>        -0.1344
      3 C3          2.2270    1.2865    0.0273 C.ar      1 <0>         0.1101
      4 N1          2.2167   -0.0322    0.0107 N.ar      1 <0>        -0.4679
      5 C4          1.0899   -0.7167   -0.0031 C.ar      1 <0>         0.0505
      6 C5         -0.1311   -0.0687   -0.0006 C.ar      1 <0>        -0.1424
      7 C6          1.1336   -2.2230   -0.0223 C.3       1 <0>         0.0569
      8 N2          1.2746   -2.6911   -1.4075 N.4       1 <0>        -0.3833
      9 C7          2.5683   -2.2499   -1.9423 C.3       1 <0>         0.0008
     10 C8          2.6861   -2.6650   -3.4104 C.3       1 <0>        -0.1574
     11 C9          2.5822   -4.1894   -3.5140 C.3       1 <0>         0.1328
     12 C10         1.2619   -4.6451   -2.8861 C.3       1 <0>        -0.1614
     13 C11         1.1969   -4.1566   -1.4375 C.3       1 <0>         0.0002
     14 N3          2.6179   -4.5882   -4.9233 N.pl3     1 <0>        -0.6758
     15 C12         3.0515   -5.8537   -5.2729 C.2       1 <0>         0.5449
     16 C13         2.9859   -6.2728   -6.5995 C.2       1 <0>        -0.3431
     17 C14         3.4298   -7.5530   -6.9230 C.2       1 <0>         0.5508
     18 O1          3.3856   -7.9498   -8.0775 O.2       1 <0>        -0.4597
     19 N4          3.9098   -8.3492   -5.9443 N.am      1 <0>        -0.4346
     20 C15         4.3463   -9.6032   -6.2520 C.2       1 <0>         0.1233
     21 C16         4.8315  -10.4212   -5.2921 C.2       1 <0>        -0.1648
     22 C17         4.8914   -9.9869   -3.9600 C.2       1 <0>         0.0103
     23 C18         4.4579   -8.7355   -3.6410 C.2       1 <0>        -0.1570
     24 C19         3.9565   -7.8971   -4.6547 C.2       1 <0>         0.4521
     25 N5          3.5379   -6.6728   -4.3437 N.2       1 <0>        -0.5861
     26 N6          2.4531   -5.3733   -7.6478 N.pl3     1 <0>         0.0910
     27 O2          2.1674   -4.2305   -7.3758 O.2       1 <0>        -0.2355
     28 O3          2.3037   -5.7816   -8.7759 O.3       1 <0>        -0.1242
     29 H1         -1.0994    1.8503    0.0226 H         1 <0>         0.1499
     30 H2          1.0601    3.0824    0.0433 H         1 <0>         0.1512
     31 H3          3.1700    1.8128    0.0383 H         1 <0>         0.1721
     32 H4         -1.0507   -0.6350   -0.0116 H         1 <0>         0.1447
     33 H5          1.9830   -2.5693    0.5665 H         1 <0>         0.1460
     34 H6          0.2112   -2.6187    0.4029 H         1 <0>         0.1455
     35 H7          2.6421   -1.1651   -1.8649 H         1 <0>         0.1404
     36 H8          3.3736   -2.7097   -1.3694 H         1 <0>         0.1361
     37 H9          1.8813   -2.2055   -3.9842 H         1 <0>         0.0960
     38 H10         3.6481   -2.3381   -3.8051 H         1 <0>         0.1218
     39 H11         3.4160   -4.6485   -2.9829 H         1 <0>         0.1169
     40 H12         0.4276   -4.2267   -3.4491 H         1 <0>         0.0926
     41 H13         1.2059   -5.7335   -2.9061 H         1 <0>         0.1178
     42 H14         2.0315   -4.5758   -0.8754 H         1 <0>         0.1361
     43 H15         0.2582   -4.4795   -0.9874 H         1 <0>         0.1369
     44 H16         2.3373   -3.9644   -5.6111 H         1 <0>         0.4338
     45 H17         4.3035   -9.9471   -7.2749 H         1 <0>         0.1949
     46 H18         5.1737  -11.4122   -5.5514 H         1 <0>         0.1741
     47 H19         5.2784  -10.6403   -3.1921 H         1 <0>         0.1667
     48 H20         4.4983   -8.3896   -2.6187 H         1 <0>         0.1751
     49 H21         0.5311   -2.3044   -1.9695 H         1 <0>         0.4221
@<TRIPOS>BOND
     1    1    6 ar
     2    1    2 ar
     3    1   29 1
     4    2    3 ar
     5    2   30 1
     6    3    4 ar
     7    3   31 1
     8    4    5 ar
     9    5    6 ar
    10    5    7 1
    11    6   32 1
    12    7    8 1
    13    7   33 1
    14    7   34 1
    15    8   13 1
    16    8    9 1
    17    8   49 1
    18    9   10 1
    19    9   35 1
    20    9   36 1
    21   10   11 1
    22   10   37 1
    23   10   38 1
    24   11   12 1
    25   11   14 1
    26   11   39 1
    27   12   13 1
    28   12   40 1
    29   12   41 1
    30   13   42 1
    31   13   43 1
    32   14   15 1
    33   14   44 1
    34   15   25 1
    35   15   16 2
    36   16   17 1
    37   16   26 1
    38   17   18 2
    39   17   19 am
    40   19   24 1
    41   19   20 1
    42   20   21 2
    43   20   45 1
    44   21   22 1
    45   21   46 1
    46   22   23 2
    47   22   47 1
    48   23   24 1
    49   23   48 1
    50   24   25 2
    51   26   27 2
    52   26   28 1
@<TRIPOS>MOLECULE
ZINC58217435
   55    58     0     0     0
SMALL
USER_CHARGES

@<TRIPOS>ATOM
      1 C1          0.8130    0.9198   -0.0584 C.3       1 <0>         0.0311
      2 O1          0.8383   -0.5056    0.0393 O.3       1 <0>        -0.3802
      3 C2         -0.4487   -1.1181   -0.0624 C.3       1 <0>         0.1129
      4 C3         -0.3038   -2.6137    0.0531 C.2       1 <0>        -0.0380
      5 C4         -0.0851   -3.5628   -1.0378 C.ar      1 <0>        -0.1402
      6 C5          0.0516   -3.4400   -2.4227 C.ar      1 <0>        -0.0486
      7 C6          0.2519   -4.5560   -3.1849 C.ar      1 <0>        -0.1294
      8 C7          0.3198   -5.8097   -2.5924 C.ar      1 <0>        -0.0649
      9 C8          0.1870   -5.9523   -1.2283 C.ar      1 <0>        -0.1157
     10 C9         -0.0166   -4.8311   -0.4318 C.ar      1 <0>         0.0801
     11 O2         -0.1787   -4.6582    0.8943 O.3       1 <0>        -0.1909
     12 C10        -0.3439   -3.3524    1.1920 C.2       1 <0>        -0.0533
     13 C11        -0.5410   -2.8116    2.5444 C.2       1 <0>         0.6142
     14 O3         -0.6839   -1.6143    2.7059 O.2       1 <0>        -0.4664
     15 N1         -0.5634   -3.6422    3.6056 N.am      1 <0>        -0.7429
     16 C12        -0.7598   -3.1031    4.9536 C.3       1 <0>         0.1170
     17 H1         -1.2205   -2.1188    4.8696 H         1 <0>         0.1618
     18 C13         0.6215   -2.9452    5.6277 C.3       1 <0>        -0.5879
     19 S1          0.2245   -3.3972    7.3728 S.o2      1 <0>         2.3872
     20 O4          1.3324   -4.0775    7.9465 O.2       1 <0>        -0.8937
     21 O5         -0.3314   -2.2701    8.0361 O.2       1 <0>        -0.8897
     22 C14        -1.1146   -4.6128    7.0031 C.3       1 <0>        -0.6251
     23 C15        -1.7091   -4.0205    5.7097 C.3       1 <0>         0.0242
     24 H2         -2.6053   -3.4566    5.9686 H         1 <0>         0.1730
     25 N2         -2.0972   -5.1263    4.8241 N.4       1 <0>        -0.3766
     26 C16        -2.9223   -4.6063    3.7272 C.3       1 <0>        -0.0352
     27 C17        -3.2619   -5.7402    2.7574 C.3       1 <0>        -0.1438
     28 C18        -4.0335   -6.8308    3.5060 C.3       1 <0>        -0.1384
     29 C19        -3.1940   -7.3136    4.6923 C.3       1 <0>        -0.1457
     30 C20        -2.8570   -6.1214    5.5904 C.3       1 <0>        -0.0165
     31 H3          1.8278    1.3081    0.0281 H         1 <0>         0.0927
     32 H4          0.3936    1.2106   -1.0215 H         1 <0>         0.0464
     33 H5          0.1982    1.3281    0.7438 H         1 <0>         0.0470
     34 H6         -1.0897   -0.7522    0.7397 H         1 <0>         0.0825
     35 H7         -0.8943   -0.8696   -1.0256 H         1 <0>         0.0681
     36 H8         -0.0011   -2.4672   -2.8887 H         1 <0>         0.1356
     37 H9          0.3578   -4.4623   -4.2557 H         1 <0>         0.1407
     38 H10         0.4782   -6.6831   -3.2076 H         1 <0>         0.1456
     39 H11         0.2409   -6.9329   -0.7789 H         1 <0>         0.1386
     40 H12        -0.4494   -4.5968    3.4769 H         1 <0>         0.4013
     41 H13         1.3477   -3.6361    5.1995 H         1 <0>         0.1580
     42 H14         0.9751   -1.9163    5.5602 H         1 <0>         0.1703
     43 H15        -0.7035   -5.6064    6.8246 H         1 <0>         0.1632
     44 H16        -1.8553   -4.6350    7.8025 H         1 <0>         0.1783
     45 H17        -3.8434   -4.1877    4.1328 H         1 <0>         0.1363
     46 H18        -2.3730   -3.8280    3.1974 H         1 <0>         0.1408
     47 H19        -3.8760   -5.3524    1.9447 H         1 <0>         0.1145
     48 H20        -2.3415   -6.1594    2.3509 H         1 <0>         0.0885
     49 H21        -4.9780   -6.4253    3.8688 H         1 <0>         0.0838
     50 H22        -4.2286   -7.6662    2.8335 H         1 <0>         0.0965
     51 H23        -3.7597   -8.0504    5.2626 H         1 <0>         0.1168
     52 H24        -2.2722   -7.7654    4.3260 H         1 <0>         0.0886
     53 H25        -2.2595   -6.4616    6.4361 H         1 <0>         0.1382
     54 H26        -3.7794   -5.6705    5.9563 H         1 <0>         0.1360
     55 H27        -1.2683   -5.5578    4.4434 H         1 <0>         0.4136
@<TRIPOS>BOND
     1    1    2 1
     2    1   31 1
     3    1   32 1
     4    1   33 1
     5    2    3 1
     6    3    4 1
     7    3   34 1
     8    3   35 1
     9    4   12 2
    10    4    5 1
    11    5   10 ar
    12    5    6 ar
    13    6    7 ar
    14    6   36 1
    15    7    8 ar
    16    7   37 1
    17    8    9 ar
    18    8   38 1
    19    9   10 ar
    20    9   39 1
    21   10   11 1
    22   11   12 1
    23   12   13 1
    24   13   14 2
    25   13   15 am
    26   15   16 1
    27   15   40 1
    28   16   17 1
    29   16   23 1
    30   16   18 1
    31   18   19 1
    32   18   41 1
    33   18   42 1
    34   19   20 2
    35   19   21 2
    36   19   22 1
    37   22   23 1
    38   22   43 1
    39   22   44 1
    40   23   24 1
    41   23   25 1
    42   25   30 1
    43   25   26 1
    44   25   55 1
    45   26   27 1
    46   26   45 1
    47   26   46 1
    48   27   28 1
    49   27   47 1
    50   27   48 1
    51   28   29 1
    52   28   49 1
    53   28   50 1
    54   29   30 1
    55   29   51 1
    56   29   52 1
    57   30   53 1
    58   30   54 1
@<TRIPOS>MOLECULE
ZINC60364023
   56    58     0     0     0
SMALL
USER_CHARGES

@<TRIPOS>ATOM
      1 C1         -0.0328    1.4934   -0.0176 C.3       1 <0>        -0.1066
      2 C2         -0.0107   -0.0134   -0.0206 C.ar      1 <0>        -0.1106
      3 C3         -0.0089   -0.7028   -1.2245 C.ar      1 <0>         0.1620
      4 C4          0.0109   -2.0877   -1.2318 C.ar      1 <0>        -0.1734
      5 C5          0.0295   -2.7895   -0.0261 C.ar      1 <0>        -0.0794
      6 C6          0.0281   -2.0923    1.1823 C.ar      1 <0>        -0.2113
      7 C7          0.0135   -0.7072    1.1805 C.ar      1 <0>         0.1602
      8 O1          0.0173   -0.0270    2.3571 O.3       1 <0>        -0.3016
      9 C8          0.0428   -0.8045    3.5559 C.3       1 <0>         0.0247
     10 C9          0.0502   -4.2680   -0.0291 C.2       1 <0>         0.5732
     11 O2          0.0509   -4.8737   -1.0829 O.2       1 <0>        -0.5097
     12 N1          0.0682   -4.9440    1.1367 N.am      1 <0>        -0.7271
     13 C10         0.0887   -6.4089    1.1338 C.3       1 <0>         0.1195
     14 H1          0.6695   -6.7457    0.2751 H         1 <0>         0.1350
     15 C11        -1.3607   -6.9220    0.9806 C.3       1 <0>        -0.5780
     16 S1         -1.3300   -8.4166    2.0635 S.o2      1 <0>         2.3654
     17 O3         -2.5932   -8.5645    2.6974 O.2       1 <0>        -0.8893
     18 O4         -0.7696   -9.5069    1.3451 O.2       1 <0>        -0.9065
     19 C12        -0.0995   -7.7939    3.2906 C.3       1 <0>        -0.6182
     20 C13         0.7769   -6.8874    2.4033 C.3       1 <0>         0.0149
     21 H2          1.0764   -6.0163    2.9861 H         1 <0>         0.1682
     22 N2          1.9863   -7.6324    2.0287 N.4       1 <0>        -0.3880
     23 C14         2.7203   -8.0126    3.2416 C.3       1 <0>        -0.0150
     24 C15         3.9377   -8.8582    2.8616 C.3       1 <0>        -0.1475
     25 C16         4.8528   -8.0423    1.9439 C.3       1 <0>        -0.1390
     26 C17         4.0559   -7.5882    0.7176 C.3       1 <0>        -0.1453
     27 C18         2.8341   -6.7896    1.1770 C.3       1 <0>        -0.0210
     28 O5         -0.0271   -0.0182   -2.3984 O.3       1 <0>        -0.3020
     29 C19        -0.0241   -0.7912   -3.6003 C.3       1 <0>         0.0226
     30 H3          0.9894    1.8718   -0.0289 H         1 <0>         0.0755
     31 H4         -0.5623    1.8508   -0.9007 H         1 <0>         0.0767
     32 H5         -0.5414    1.8475    0.8791 H         1 <0>         0.0756
     33 H6          0.0115   -2.6236   -2.1695 H         1 <0>         0.1472
     34 H7          0.0422   -2.6317    2.1179 H         1 <0>         0.1294
     35 H8          0.9421   -1.4202    3.5706 H         1 <0>         0.0543
     36 H9          0.0431   -0.1400    4.4199 H         1 <0>         0.1087
     37 H10        -0.8375   -1.4463    3.5914 H         1 <0>         0.0571
     38 H11         0.0676   -4.4607    1.9777 H         1 <0>         0.4105
     39 H12        -2.0773   -6.1871    1.3472 H         1 <0>         0.1633
     40 H13        -1.5735   -7.1920   -0.0538 H         1 <0>         0.1687
     41 H14        -0.5872   -7.2172    4.0765 H         1 <0>         0.1862
     42 H15         0.4826   -8.6134    3.7121 H         1 <0>         0.1676
     43 H16         3.0510   -7.1139    3.7623 H         1 <0>         0.1360
     44 H17         2.0668   -8.5904    3.8951 H         1 <0>         0.1353
     45 H18         4.4824   -9.1379    3.7634 H         1 <0>         0.1179
     46 H19         3.6082   -9.7573    2.3410 H         1 <0>         0.0930
     47 H20         5.2235   -7.1694    2.4814 H         1 <0>         0.0832
     48 H21         5.6928   -8.6592    1.6248 H         1 <0>         0.0986
     49 H22         4.6851   -6.9602    0.0868 H         1 <0>         0.1172
     50 H23         3.7288   -8.4610    0.1524 H         1 <0>         0.0929
     51 H24         2.2646   -6.4646    0.3063 H         1 <0>         0.1348
     52 H25         3.1624   -5.9170    1.7417 H         1 <0>         0.1356
     53 H26         0.8747   -1.4067   -3.6342 H         1 <0>         0.0600
     54 H27        -0.9050   -1.4328   -3.6218 H         1 <0>         0.0608
     55 H28        -0.0399   -0.1235   -4.4617 H         1 <0>         0.1099
     56 H29         1.7240   -8.4646    1.5220 H         1 <0>         0.4277
@<TRIPOS>BOND
     1    1    2 1
     2    1   30 1
     3    1   31 1
     4    1   32 1
     5    2    7 ar
     6    2    3 ar
     7    3    4 ar
     8    3   28 1
     9    4    5 ar
    10    4   33 1
    11    5    6 ar
    12    5   10 1
    13    6    7 ar
    14    6   34 1
    15    7    8 1
    16    8    9 1
    17    9   35 1
    18    9   36 1
    19    9   37 1
    20   10   11 2
    21   10   12 am
    22   12   13 1
    23   12   38 1
    24   13   14 1
    25   13   20 1
    26   13   15 1
    27   15   16 1
    28   15   39 1
    29   15   40 1
    30   16   17 2
    31   16   18 2
    32   16   19 1
    33   19   20 1
    34   19   41 1
    35   19   42 1
    36   20   21 1
    37   20   22 1
    38   22   27 1
    39   22   23 1
    40   22   56 1
    41   23   24 1
    42   23   43 1
    43   23   44 1
    44   24   25 1
    45   24   45 1
    46   24   46 1
    47   25   26 1
    48   25   47 1
    49   25   48 1
    50   26   27 1
    51   26   49 1
    52   26   50 1
    53   27   51 1
    54   27   52 1
    55   28   29 1
    56   29   53 1
    57   29   54 1
    58   29   55 1
@<TRIPOS>MOLECULE
ZINC63140137
   55    59     0     0     0
SMALL
USER_CHARGES

@<TRIPOS>ATOM
      1 C1         -0.0164    1.3550    0.0095 C.ar      1 <0>        -0.1564
      2 C2          1.1410    2.1399    0.0027 C.ar      1 <0>         0.0649
      3 C3          2.4037    1.6438   -0.0112 C.ar      1 <0>        -0.2103
      4 C4          2.5525    0.2262   -0.0187 C.ar      1 <0>         0.3424
      5 N1          3.6252   -0.5057   -0.0410 N.pl3     1 <0>        -0.5781
      6 C5          3.2309   -1.9201   -0.0041 C.3       1 <0>         0.0908
      7 H1          3.6151   -2.4169    0.8868 H         1 <0>         0.1835
      8 C6          3.6809   -2.6346   -1.2780 C.3       1 <0>         0.2110
      9 H2          3.5519   -1.9625   -2.1264 H         1 <0>         0.1049
     10 N2          2.9166   -3.8504   -1.5161 N.am      1 <0>        -0.6144
     11 C7          1.5932   -4.1696   -1.0241 C.3       1 <0>         0.1237
     12 H3          1.7250   -5.0654   -0.4172 H         1 <0>         0.1152
     13 C8          0.9068   -3.1781   -0.1219 C.3       1 <0>        -0.0819
     14 C9          1.7041   -1.9085   -0.0238 C.2       1 <0>         0.0538
     15 C10         1.3316   -0.6359   -0.0133 C.ar      1 <0>        -0.1460
     16 C11         0.0021   -0.0041    0.0020 C.ar      1 <0>         0.0027
     17 C12         0.7173   -4.6084   -2.1700 C.2       1 <0>         0.5096
     18 O1         -0.4055   -4.1777   -2.3272 O.2       1 <0>        -0.4905
     19 N3          1.2721   -5.5229   -3.0202 N.am      1 <0>        -0.6107
     20 C13         2.6300   -5.9939   -2.6912 C.3       1 <0>         0.0916
     21 C14         3.4830   -4.7940   -2.3380 C.2       1 <0>         0.5087
     22 O2          4.6130   -4.6715   -2.7611 O.2       1 <0>        -0.4653
     23 C15         0.5533   -6.0115   -4.1995 C.3       1 <0>         0.1216
     24 C16         0.8646   -5.1103   -5.3961 C.3       1 <0>        -0.1387
     25 C17         0.1140   -5.6206   -6.6278 C.3       1 <0>         0.0781
     26 O3          0.4047   -4.7789   -7.7454 O.3       1 <0>        -0.5751
     27 C18         5.1397   -2.9908   -1.1519 C.ar      1 <0>        -0.1023
     28 C19         5.5187   -4.1085   -0.4317 C.ar      1 <0>        -0.0467
     29 C20         6.8567   -4.4351   -0.3160 C.ar      1 <0>        -0.1011
     30 C21         7.8161   -3.6443   -0.9207 C.ar      1 <0>        -0.0372
     31 C22         7.4372   -2.5275   -1.6414 C.ar      1 <0>        -0.0356
     32 C23         6.0985   -2.2032   -1.7607 C.ar      1 <0>        -0.0462
     33 N4          8.4644   -1.6806   -2.2883 N.pl3     1 <0>         0.0274
     34 O4          9.6348   -1.9658   -2.1864 O.2       1 <0>        -0.1384
     35 O5          8.1330   -0.7036   -2.9187 O.3       1 <0>        -0.1548
     36 H4         -0.9739    1.8543    0.0260 H         1 <0>         0.1590
     37 H5          1.0216    3.2133    0.0085 H         1 <0>         0.1618
     38 H6          3.2631    2.2979   -0.0167 H         1 <0>         0.1724
     39 H7         -0.0972   -2.9812   -0.4979 H         1 <0>         0.1482
     40 H8          0.8402   -3.5905    0.8849 H         1 <0>         0.1441
     41 H9         -0.9069   -0.5872    0.0074 H         1 <0>         0.1742
     42 H10         2.5855   -6.6745   -1.8409 H         1 <0>         0.1168
     43 H11         3.0582   -6.5069   -3.5523 H         1 <0>         0.1354
     44 H12         0.8689   -7.0311   -4.4208 H         1 <0>         0.0939
     45 H13        -0.5188   -5.9975   -4.0033 H         1 <0>         0.0982
     46 H14         0.5490   -4.0907   -5.1749 H         1 <0>         0.0719
     47 H15         1.9367   -5.1243   -5.5924 H         1 <0>         0.0722
     48 H16         0.4295   -6.6402   -6.8491 H         1 <0>         0.0509
     49 H17        -0.9581   -5.6066   -6.4316 H         1 <0>         0.0510
     50 H18        -0.0385   -5.0437   -8.5631 H         1 <0>         0.3879
     51 H19         4.7692   -4.7262    0.0407 H         1 <0>         0.1387
     52 H20         7.1527   -5.3078    0.2471 H         1 <0>         0.1557
     53 H21         8.8617   -3.8991   -0.8297 H         1 <0>         0.1616
     54 H22         5.8022   -1.3325   -2.3270 H         1 <0>         0.1494
     55 H23         4.5357   -0.1733   -0.0767 H         1 <0>         0.4564
@<TRIPOS>BOND
     1    1   16 ar
     2    1    2 ar
     3    1   36 1
     4    2    3 ar
     5    2   37 1
     6    3    4 ar
     7    3   38 1
     8    4   15 ar
     9    4    5 2
    10    5    6 1
    11    5   55 1
    12    6    7 1
    13    6   14 1
    14    6    8 1
    15    8    9 1
    16    8   10 1
    17    8   27 1
    18   10   21 am
    19   10   11 1
    20   11   12 1
    21   11   13 1
    22   11   17 1
    23   13   14 1
    24   13   39 1
    25   13   40 1
    26   14   15 2
    27   15   16 ar
    28   16   41 1
    29   17   18 2
    30   17   19 am
    31   19   20 1
    32   19   23 1
    33   20   21 1
    34   20   42 1
    35   20   43 1
    36   21   22 2
    37   23   24 1
    38   23   44 1
    39   23   45 1
    40   24   25 1
    41   24   46 1
    42   24   47 1
    43   25   26 1
    44   25   48 1
    45   25   49 1
    46   26   50 1
    47   27   32 ar
    48   27   28 ar
    49   28   29 ar
    50   28   51 1
    51   29   30 ar
    52   29   52 1
    53   30   31 ar
    54   30   53 1
    55   31   32 ar
    56   31   33 1
    57   32   54 1
    58   33   34 2
    59   33   35 1
