# created with PyMOL 2.5.0
@<TRIPOS>MOLECULE
bnz
12 12 1                 
SMALL
USER_CHARGES
@<TRIPOS>ATOM
1	 H01	25.230	4.686	5.245	 H	1	BNZ400	0.000	
2	 H02	25.968	4.235	2.950	 H	1	BNZ400	0.000	
3	 H03	27.689	5.631	1.895	 H	1	BNZ400	0.000	
4	 H04	28.573	7.566	3.089	 H	1	BNZ400	0.000	
5	 H05	27.821	8.060	5.386	 H	1	BNZ400	0.000	
6	 H06	26.187	6.572	6.496	 H	1	BNZ400	0.000	
7	  C1	25.978	5.327	4.779	C.2	1	BNZ400	0.000	
8	  C2	26.395	5.074	3.499	C.2	1	BNZ400	0.000	
9	  C3	27.340	5.860	2.902	C.2	1	BNZ400	0.000	
10	  C4	27.837	6.921	3.569	C.2	1	BNZ400	0.000	
11	  C5	27.420	7.196	4.856	C.2	1	BNZ400	0.000	
12	  C6	26.498	6.379	5.469	C.2	1	BNZ400	0.000	
@<TRIPOS>BOND
1 1 7 1
2 7 8 ar
3 7 12 ar
4 2 8 1
5 8 9 ar
6 3 9 1
7 9 10 ar
8 4 10 1
9 10 11 ar
10 5 11 1
11 11 12 ar
12 6 12 1
@<TRIPOS>SUBSTRUCTURE
1	BNZ400	1	GROUP	1 A	BNZ
