@<TRIPOS>MOLECULE
bnz
   12    12     1     0     0
SMALL
bcc


@<TRIPOS>ATOM
      1 H01         25.2300     4.6860     5.2450 ha         1 BNZ       0.130000
      2 H02         25.9680     4.2350     2.9500 ha         1 BNZ       0.130000
      3 H03         27.6890     5.6310     1.8950 ha         1 BNZ       0.130000
      4 H04         28.5730     7.5660     3.0890 ha         1 BNZ       0.130000
      5 H05         27.8210     8.0600     5.3860 ha         1 BNZ       0.130000
      6 H06         26.1870     6.5720     6.4960 ha         1 BNZ       0.130000
      7 C1          25.9780     5.3270     4.7790 ca         1 BNZ      -0.130000
      8 C2          26.3950     5.0740     3.4990 ca         1 BNZ      -0.130000
      9 C3          27.3400     5.8600     2.9020 ca         1 BNZ      -0.130000
     10 C4          27.8370     6.9210     3.5690 ca         1 BNZ      -0.130000
     11 C5          27.4200     7.1960     4.8560 ca         1 BNZ      -0.130000
     12 C6          26.4980     6.3790     5.4690 ca         1 BNZ      -0.130000
@<TRIPOS>BOND
     1     1     7 1   
     2     7     8 ar  
     3     7    12 ar  
     4     2     8 1   
     5     8     9 ar  
     6     3     9 1   
     7     9    10 ar  
     8     4    10 1   
     9    10    11 ar  
    10     5    11 1   
    11    11    12 ar  
    12     6    12 1   
@<TRIPOS>SUBSTRUCTURE
     1 BNZ         1 TEMP              0 ****  ****    0 ROOT
